version 2
run plain-0-20250606-15:25:00-19776
attr configname plain
attr datetime 20250606-15:25:00
attr experiment plain
attr inifile omnetpp.ini
attr iterationvars ""
attr iterationvarsf ""
attr measurement ""
attr network Scenario
attr processid 19776
attr repetition 0
attr replication #0
attr resultdir results
attr runnumber 0
attr seedset 0
param *.node[*].numApps 1
param *.node[*].app[0].typename "\"v2xsimulation.veins_inet.VeinsInetSampleApplication\""
param *.node[*].app[0].interface "\"wlan0\""
param *.node[*].wlan[0].opMode "\"p\""
param *.node[*].wlan[0].radio.typename "\"Ieee80211DimensionalRadio\""
param *.node[*].wlan[0].radio.bandName "\"5.9 GHz\""
param *.node[*].wlan[0].radio.channelNumber 3
param *.node[*].wlan[0].radio.transmitter.power 20mW
param *.node[*].wlan[0].radio.bandwidth "10 MHz"
param *.node[*].wlan[*].radio.antenna.mobility.typename "\"AttachedMobility\""
param *.node[*].wlan[*].radio.antenna.mobility.mobilityModule "\"^.^.^.^.mobility\""
param *.node[*].wlan[*].radio.antenna.mobility.offsetX -2.5m
param *.node[*].wlan[*].radio.antenna.mobility.offsetZ 1.5m
param *.node[*].wlan[*].radio.antenna.mobility.constraintAreaMinX 0m
param *.node[*].wlan[*].radio.antenna.mobility.constraintAreaMaxX 0m
param *.node[*].wlan[*].radio.antenna.mobility.constraintAreaMinY 0m
param *.node[*].wlan[*].radio.antenna.mobility.constraintAreaMaxY 0m
param *.node[*].wlan[*].radio.antenna.mobility.constraintAreaMinZ 0m
param *.node[*].wlan[*].radio.antenna.mobility.constraintAreaMaxZ 0m
param *.rsu1.numApps 1
param *.rsu1.app[0].typename "\"v2xsimulation.veins_inet.VeinsInetRSUApplication\""
param *.rsu1.app[0].interface "\"wlan0\""
param *.rsu2.numApps 1
param *.rsu2.app[0].typename "\"v2xsimulation.veins_inet.VeinsInetRSUApplication\""
param *.rsu2.app[0].interface "\"wlan0\""
param *.rsu1.wlan[0].opMode "\"p\""
param *.rsu1.wlan[0].radio.typename "\"Ieee80211DimensionalRadio\""
param *.rsu1.wlan[0].radio.bandName "\"5.9 GHz\""
param *.rsu1.wlan[0].radio.channelNumber 3
param *.rsu1.wlan[0].radio.transmitter.power 20mW
param *.rsu1.wlan[0].radio.bandwidth "10 MHz"
param *.rsu2.wlan[0].opMode "\"p\""
param *.rsu2.wlan[0].radio.typename "\"Ieee80211DimensionalRadio\""
param *.rsu2.wlan[0].radio.bandName "\"5.9 GHz\""
param *.rsu2.wlan[0].radio.channelNumber 3
param *.rsu2.wlan[0].radio.transmitter.power 20mW
param *.rsu2.wlan[0].radio.bandwidth "10 MHz"
param *.**.ipv4.configurator.typename "\"HostAutoConfigurator\""
param *.**.ipv4.configurator.interfaces "\"wlan0\""
param *.**.ipv4.configurator.mcastGroups "\"224.0.0.1\""
param *.rsu1.app[0].localPort 1234
param *.rsu2.app[0].localPort 1234
param *.node[*].mobility.typename "\"VeinsInetMobility\""
param *.manager.updateInterval 0.1s
param *.manager.host "\"localhost\""
param *.manager.port 9999
param *.manager.autoShutdown true
param *.manager.launchConfig "xmldoc(\"nh29.launchd.xml\")"
param *.manager.moduleType "\"v2xsimulation.veins_inet.VeinsInetCar\""
param *.physicalEnvironment.config "xmldoc(\"obstacles.xml\")"
param *.radioMedium.obstacleLoss.typename "\"IdealObstacleLoss\""

vector 0 Scenario.rsu1.wlan[0].radio radioMode:vector ETV
attr interpolationmode sample-hold
attr source radioModeChanged
attr title "Radio mode, vector"
vector 1 Scenario.rsu1.wlan[0].radio radioChannel:vector ETV
attr interpolationmode sample-hold
attr source radioChannelChanged
attr title "Radio channel, vector"
vector 2 Scenario.rsu2.wlan[0].radio radioMode:vector ETV
attr interpolationmode sample-hold
attr source radioModeChanged
attr title "Radio mode, vector"
vector 3 Scenario.rsu2.wlan[0].radio radioChannel:vector ETV
attr interpolationmode sample-hold
attr source radioChannelChanged
attr title "Radio channel, vector"
vector 4 Scenario.rsu1.wlan[0].radio receptionState:vector ETV
attr interpolationmode sample-hold
attr source receptionStateChanged
attr title "Radio reception state, vector"
vector 5 Scenario.rsu2.wlan[0].radio receptionState:vector ETV
attr interpolationmode sample-hold
attr source receptionStateChanged
attr title "Radio reception state, vector"
vector 6 Scenario.rsu1.wlan[0].mac.dcf.recoveryProcedure contentionWindowChanged:vector ETV
attr interpolationmode sample-hold
attr title "contention window, vector"
vector 7 Scenario.rsu2.wlan[0].mac.dcf.recoveryProcedure contentionWindowChanged:vector ETV
attr interpolationmode sample-hold
attr title "contention window, vector"
vector 8 Scenario.node[0].wlan[0].radio radioMode:vector ETV
attr interpolationmode sample-hold
attr source radioModeChanged
attr title "Radio mode, vector"
vector 9 Scenario.node[0].wlan[0].radio radioChannel:vector ETV
attr interpolationmode sample-hold
attr source radioChannelChanged
attr title "Radio channel, vector"
vector 10 Scenario.node[0].wlan[0].radio receptionState:vector ETV
attr interpolationmode sample-hold
attr source receptionStateChanged
attr title "Radio reception state, vector"
vector 11 Scenario.node[0].wlan[0].mac.dcf.recoveryProcedure contentionWindowChanged:vector ETV
attr interpolationmode sample-hold
attr title "contention window, vector"
vector 12 Scenario.node[1].wlan[0].radio radioMode:vector ETV
attr interpolationmode sample-hold
attr source radioModeChanged
attr title "Radio mode, vector"
vector 13 Scenario.node[1].wlan[0].radio radioChannel:vector ETV
attr interpolationmode sample-hold
attr source radioChannelChanged
attr title "Radio channel, vector"
vector 14 Scenario.node[1].wlan[0].radio receptionState:vector ETV
attr interpolationmode sample-hold
attr source receptionStateChanged
attr title "Radio reception state, vector"
vector 15 Scenario.node[1].wlan[0].mac.dcf.recoveryProcedure contentionWindowChanged:vector ETV
attr interpolationmode sample-hold
attr title "contention window, vector"
vector 16 Scenario.node[2].wlan[0].radio radioMode:vector ETV
attr interpolationmode sample-hold
attr source radioModeChanged
attr title "Radio mode, vector"
vector 17 Scenario.node[2].wlan[0].radio radioChannel:vector ETV
attr interpolationmode sample-hold
attr source radioChannelChanged
attr title "Radio channel, vector"
vector 18 Scenario.node[2].wlan[0].radio receptionState:vector ETV
attr interpolationmode sample-hold
attr source receptionStateChanged
attr title "Radio reception state, vector"
vector 19 Scenario.node[2].wlan[0].mac.dcf.recoveryProcedure contentionWindowChanged:vector ETV
attr interpolationmode sample-hold
attr title "contention window, vector"
vector 20 Scenario.node[3].wlan[0].radio radioMode:vector ETV
attr interpolationmode sample-hold
attr source radioModeChanged
attr title "Radio mode, vector"
vector 21 Scenario.node[3].wlan[0].radio radioChannel:vector ETV
attr interpolationmode sample-hold
attr source radioChannelChanged
attr title "Radio channel, vector"
vector 22 Scenario.node[3].wlan[0].radio receptionState:vector ETV
attr interpolationmode sample-hold
attr source receptionStateChanged
attr title "Radio reception state, vector"
vector 23 Scenario.node[3].wlan[0].mac.dcf.recoveryProcedure contentionWindowChanged:vector ETV
attr interpolationmode sample-hold
attr title "contention window, vector"
vector 24 Scenario.node[0].app[0] packetSent:vector(packetBytes) ETV
attr interpolationmode none
attr source packetSent
attr title "packets sent, vector(packetBytes)"
vector 25 Scenario.node[0].udp packetSent:vector(packetBytes) ETV
attr interpolationmode none
attr source packetSent
attr title "packets sent, vector(packetBytes)"
vector 26 Scenario.node[0].lo[0].lo rcvdPkFromHl:vector(packetBytes) ETV
attr interpolationmode none
attr source packetReceivedFromUpper
attr title "packets received from higher layer, vector(packetBytes)"
vector 27 Scenario.node[0].lo[0].lo passedUpPk:vector(packetBytes) ETV
attr interpolationmode none
attr source packetSentToUpper
attr title "packets passed to higher layer, vector(packetBytes)"
vector 28 Scenario.node[0].wlan[0].mac packetReceivedFromUpper:vector(packetBytes) ETV
attr interpolationmode none
attr title "packets received from upper layer, vector(packetBytes)"
vector 29 Scenario.node[0].wlan[0].mac.dcf.channelAccess.pendingQueue packetPushed:vector(packetBytes) ETV
attr interpolationmode none
attr title "packet pushed, vector(packetBytes)"
vector 30 Scenario.node[0].wlan[0].mac.dcf.channelAccess.pendingQueue queueLength:vector ETV
attr interpolationmode sample-hold
attr source "count(packetPushed) - count(packetPopped) - count(packetRemoved) - count(packetDropped)"
attr title "queue length, vector"
vector 31 Scenario.node[0].wlan[0].mac.dcf.channelAccess.contention backoffPeriodGenerated:vector ETV
attr interpolationmode none
attr title "backoff periods, vector"
vector 32 Scenario.node[0].wlan[0].mac.dcf.channelAccess.contention backoffActive:vector ETV
attr interpolationmode sample-hold
attr source count(backoffStarted)-count(backoffStopped)
attr title "backoff active, vector"
vector 33 Scenario.node[0].udp packetReceived:vector(packetBytes) ETV
attr interpolationmode none
attr source packetReceived
attr title "packets received, vector(packetBytes)"
vector 34 Scenario.node[0].udp passedUpPk:vector(count) ETV
attr interpolationmode none
attr source packetSentToUpper
attr title "packets passed up, vector(count)"
vector 35 Scenario.node[0].app[0] packetReceived:vector(packetBytes) ETV
attr interpolationmode none
attr source packetReceived
attr title "packets received, vector(packetBytes)"
vector 36 Scenario.node[0].app[0] throughput:vector ETV
attr source throughput(packetReceived)
attr title "throughput, vector"
attr unit bps
vector 37 Scenario.node[0].wlan[0].mac.dcf.channelAccess.pendingQueue packetPopped:vector(packetBytes) ETV
attr interpolationmode none
attr title "packet popped, vector(packetBytes)"
vector 38 Scenario.node[0].wlan[0].mac.dcf.channelAccess.pendingQueue queueingTime:vector ETV
attr interpolationmode none
attr source queueingTime(packetPopped)
attr title "queueing times, vector"
attr unit s
vector 39 Scenario.node[0].wlan[0].mac.dcf.channelAccess.inProgressFrames queueLength:vector ETV
attr interpolationmode sample-hold
attr source "count(packetEnqueued) - count(packetDequeued)"
attr title "queue length, vector"
vector 40 Scenario.node[0].wlan[0].mac.dcf datarateSelected:vector ETV
attr interpolationmode none
attr title "datarates selected, vector"
vector 41 Scenario.node[0].wlan[0].mac packetSentToLower:vector(packetBytes) ETV
attr interpolationmode none
attr title "packets sent to lower layer, vector(packetBytes)"
vector 42 Scenario.node[0].wlan[0].mac.dcf frameSequenceActive:vector ETV
attr interpolationmode sample-hold
attr source count(frameSequenceStarted)-count(frameSequenceFinished)
attr title "frame sequence active, vector"
vector 43 Scenario.node[0].wlan[0].radio transmissionState:vector ETV
attr interpolationmode sample-hold
attr source transmissionStateChanged
attr title "Radio transmission state, vector"
vector 44 Scenario.node[0].wlan[0].mac.dcf packetSentToPeer:vector(packetBytes) ETV
attr interpolationmode none
attr title "packets sent, vector(packetBytes)"
vector 45 Scenario.node[0].wlan[0].mac.dcf packetSentToPeerMulticast:vector(packetBytes) ETV
attr interpolationmode none
attr source ieee80211Multicast(packetSentToPeer)
attr title "packets sent: multicast, vector(packetBytes)"
vector 46 Scenario.node[0].wlan[0].mac.dcf packetSentToPeerWithoutRetry:vector(packetBytes) ETV
attr interpolationmode none
attr source ieee80211NotRetry(packetSentToPeer)
attr title "packets sent: without retry, vector(packetBytes)"
vector 47 Scenario.node[0].wlan[0].mac.dcf.channelAccess.inProgressFrames queueingTime:vector ETV
attr interpolationmode none
attr source queueingTime(packetDequeued)
attr title "queueing times, vector"
vector 48 Scenario.node[2].wlan[0].mac packetReceivedFromLower:vector(packetBytes) ETV
attr interpolationmode none
attr title "packets received from lower layer, vector(packetBytes)"
vector 49 Scenario.node[2].wlan[0].mac.dcf packetReceivedFromPeer:vector(packetBytes) ETV
attr interpolationmode none
attr title "packets received, vector(packetBytes)"
vector 50 Scenario.node[2].wlan[0].mac.dcf packetReceivedFromPeerMulticast:vector(packetBytes) ETV
attr interpolationmode none
attr source ieee80211Multicast(packetReceivedFromPeer)
attr title "packets received: multicast, vector(packetBytes)"
vector 51 Scenario.node[2].wlan[0].mac.dcf packetReceivedFromPeerWithoutRetry:vector(packetBytes) ETV
attr interpolationmode none
attr source ieee80211NotRetry(packetReceivedFromPeer)
attr title "packets received: without retry, vector(packetBytes)"
vector 52 Scenario.node[2].wlan[0].mac packetSentToUpper:vector(packetBytes) ETV
attr interpolationmode none
attr title "packets sent to upper layer, vector(packetBytes)"
vector 53 Scenario.node[2].udp packetReceived:vector(packetBytes) ETV
attr interpolationmode none
attr source packetReceived
attr title "packets received, vector(packetBytes)"
vector 54 Scenario.node[2].udp passedUpPk:vector(count) ETV
attr interpolationmode none
attr source packetSentToUpper
attr title "packets passed up, vector(count)"
vector 55 Scenario.node[2].app[0] packetReceived:vector(packetBytes) ETV
attr interpolationmode none
attr source packetReceived
attr title "packets received, vector(packetBytes)"
vector 56 Scenario.node[2].app[0] throughput:vector ETV
attr source throughput(packetReceived)
attr title "throughput, vector"
attr unit bps
vector 57 Scenario.node[2].app[0] packetSent:vector(packetBytes) ETV
attr interpolationmode none
attr source packetSent
attr title "packets sent, vector(packetBytes)"
vector 58 Scenario.node[2].udp packetSent:vector(packetBytes) ETV
attr interpolationmode none
attr source packetSent
attr title "packets sent, vector(packetBytes)"
vector 59 Scenario.node[2].lo[0].lo rcvdPkFromHl:vector(packetBytes) ETV
attr interpolationmode none
attr source packetReceivedFromUpper
attr title "packets received from higher layer, vector(packetBytes)"
vector 60 Scenario.node[2].lo[0].lo passedUpPk:vector(packetBytes) ETV
attr interpolationmode none
attr source packetSentToUpper
attr title "packets passed to higher layer, vector(packetBytes)"
vector 61 Scenario.node[2].wlan[0].mac packetReceivedFromUpper:vector(packetBytes) ETV
attr interpolationmode none
attr title "packets received from upper layer, vector(packetBytes)"
vector 62 Scenario.node[2].wlan[0].mac.dcf.channelAccess.pendingQueue packetPushed:vector(packetBytes) ETV
attr interpolationmode none
attr title "packet pushed, vector(packetBytes)"
vector 63 Scenario.node[2].wlan[0].mac.dcf.channelAccess.pendingQueue queueLength:vector ETV
attr interpolationmode sample-hold
attr source "count(packetPushed) - count(packetPopped) - count(packetRemoved) - count(packetDropped)"
attr title "queue length, vector"
vector 64 Scenario.node[2].wlan[0].mac.dcf.channelAccess.contention backoffPeriodGenerated:vector ETV
attr interpolationmode none
attr title "backoff periods, vector"
vector 65 Scenario.node[2].wlan[0].mac.dcf.channelAccess.contention backoffActive:vector ETV
attr interpolationmode sample-hold
attr source count(backoffStarted)-count(backoffStopped)
attr title "backoff active, vector"
vector 66 Scenario.rsu2.wlan[0].mac packetReceivedFromLower:vector(packetBytes) ETV
attr interpolationmode none
attr title "packets received from lower layer, vector(packetBytes)"
vector 67 Scenario.rsu2.wlan[0].mac.dcf packetReceivedFromPeer:vector(packetBytes) ETV
attr interpolationmode none
attr title "packets received, vector(packetBytes)"
vector 68 Scenario.rsu2.wlan[0].mac.dcf packetReceivedFromPeerMulticast:vector(packetBytes) ETV
attr interpolationmode none
attr source ieee80211Multicast(packetReceivedFromPeer)
attr title "packets received: multicast, vector(packetBytes)"
vector 69 Scenario.rsu2.wlan[0].mac.dcf packetReceivedFromPeerWithoutRetry:vector(packetBytes) ETV
attr interpolationmode none
attr source ieee80211NotRetry(packetReceivedFromPeer)
attr title "packets received: without retry, vector(packetBytes)"
vector 70 Scenario.rsu2.wlan[0].mac packetSentToUpper:vector(packetBytes) ETV
attr interpolationmode none
attr title "packets sent to upper layer, vector(packetBytes)"
vector 71 Scenario.rsu2.udp packetReceived:vector(packetBytes) ETV
attr interpolationmode none
attr source packetReceived
attr title "packets received, vector(packetBytes)"
vector 72 Scenario.rsu2.udp droppedPkWrongPort:vector(count) ETV
attr interpolationmode none
attr source packetDropReasonIsNoPortFound(packetDropped)
attr title "packets dropped (wrong port), vector(count)"
vector 73 Scenario.rsu1.wlan[0].mac packetReceivedFromLower:vector(packetBytes) ETV
attr interpolationmode none
attr title "packets received from lower layer, vector(packetBytes)"
vector 74 Scenario.rsu1.wlan[0].mac.dcf packetReceivedFromPeer:vector(packetBytes) ETV
attr interpolationmode none
attr title "packets received, vector(packetBytes)"
vector 75 Scenario.rsu1.wlan[0].mac.dcf packetReceivedFromPeerMulticast:vector(packetBytes) ETV
attr interpolationmode none
attr source ieee80211Multicast(packetReceivedFromPeer)
attr title "packets received: multicast, vector(packetBytes)"
vector 76 Scenario.rsu1.wlan[0].mac.dcf packetReceivedFromPeerWithoutRetry:vector(packetBytes) ETV
attr interpolationmode none
attr source ieee80211NotRetry(packetReceivedFromPeer)
attr title "packets received: without retry, vector(packetBytes)"
vector 77 Scenario.rsu1.wlan[0].mac packetSentToUpper:vector(packetBytes) ETV
attr interpolationmode none
attr title "packets sent to upper layer, vector(packetBytes)"
vector 78 Scenario.rsu1.udp packetReceived:vector(packetBytes) ETV
attr interpolationmode none
attr source packetReceived
attr title "packets received, vector(packetBytes)"
vector 79 Scenario.rsu1.udp droppedPkWrongPort:vector(count) ETV
attr interpolationmode none
attr source packetDropReasonIsNoPortFound(packetDropped)
attr title "packets dropped (wrong port), vector(count)"
vector 80 Scenario.node[2].wlan[0].mac.dcf.channelAccess.pendingQueue packetPopped:vector(packetBytes) ETV
attr interpolationmode none
attr title "packet popped, vector(packetBytes)"
vector 81 Scenario.node[2].wlan[0].mac.dcf.channelAccess.pendingQueue queueingTime:vector ETV
attr interpolationmode none
attr source queueingTime(packetPopped)
attr title "queueing times, vector"
attr unit s
vector 82 Scenario.node[2].wlan[0].mac.dcf.channelAccess.inProgressFrames queueLength:vector ETV
attr interpolationmode sample-hold
attr source "count(packetEnqueued) - count(packetDequeued)"
attr title "queue length, vector"
vector 83 Scenario.node[2].wlan[0].mac.dcf datarateSelected:vector ETV
attr interpolationmode none
attr title "datarates selected, vector"
vector 84 Scenario.node[2].wlan[0].mac packetSentToLower:vector(packetBytes) ETV
attr interpolationmode none
attr title "packets sent to lower layer, vector(packetBytes)"
vector 85 Scenario.node[2].wlan[0].mac.dcf frameSequenceActive:vector ETV
attr interpolationmode sample-hold
attr source count(frameSequenceStarted)-count(frameSequenceFinished)
attr title "frame sequence active, vector"
vector 86 Scenario.node[2].wlan[0].radio transmissionState:vector ETV
attr interpolationmode sample-hold
attr source transmissionStateChanged
attr title "Radio transmission state, vector"
vector 87 Scenario.node[2].wlan[0].mac.dcf packetSentToPeer:vector(packetBytes) ETV
attr interpolationmode none
attr title "packets sent, vector(packetBytes)"
vector 88 Scenario.node[2].wlan[0].mac.dcf packetSentToPeerMulticast:vector(packetBytes) ETV
attr interpolationmode none
attr source ieee80211Multicast(packetSentToPeer)
attr title "packets sent: multicast, vector(packetBytes)"
vector 89 Scenario.node[2].wlan[0].mac.dcf packetSentToPeerWithoutRetry:vector(packetBytes) ETV
attr interpolationmode none
attr source ieee80211NotRetry(packetSentToPeer)
attr title "packets sent: without retry, vector(packetBytes)"
vector 90 Scenario.node[2].wlan[0].mac.dcf.channelAccess.inProgressFrames queueingTime:vector ETV
attr interpolationmode none
attr source queueingTime(packetDequeued)
attr title "queueing times, vector"
vector 91 Scenario.node[0].wlan[0].mac packetReceivedFromLower:vector(packetBytes) ETV
attr interpolationmode none
attr title "packets received from lower layer, vector(packetBytes)"
vector 92 Scenario.node[0].wlan[0].mac.dcf packetReceivedFromPeer:vector(packetBytes) ETV
attr interpolationmode none
attr title "packets received, vector(packetBytes)"
vector 93 Scenario.node[0].wlan[0].mac.dcf packetReceivedFromPeerMulticast:vector(packetBytes) ETV
attr interpolationmode none
attr source ieee80211Multicast(packetReceivedFromPeer)
attr title "packets received: multicast, vector(packetBytes)"
vector 94 Scenario.node[0].wlan[0].mac.dcf packetReceivedFromPeerWithoutRetry:vector(packetBytes) ETV
attr interpolationmode none
attr source ieee80211NotRetry(packetReceivedFromPeer)
attr title "packets received: without retry, vector(packetBytes)"
vector 95 Scenario.node[0].wlan[0].mac packetSentToUpper:vector(packetBytes) ETV
attr interpolationmode none
attr title "packets sent to upper layer, vector(packetBytes)"
vector 96 Scenario.node[4].wlan[0].radio radioMode:vector ETV
attr interpolationmode sample-hold
attr source radioModeChanged
attr title "Radio mode, vector"
vector 97 Scenario.node[4].wlan[0].radio radioChannel:vector ETV
attr interpolationmode sample-hold
attr source radioChannelChanged
attr title "Radio channel, vector"
vector 98 Scenario.node[4].wlan[0].radio receptionState:vector ETV
attr interpolationmode sample-hold
attr source receptionStateChanged
attr title "Radio reception state, vector"
vector 99 Scenario.node[4].wlan[0].mac.dcf.recoveryProcedure contentionWindowChanged:vector ETV
attr interpolationmode sample-hold
attr title "contention window, vector"
vector 100 Scenario.node[5].wlan[0].radio radioMode:vector ETV
attr interpolationmode sample-hold
attr source radioModeChanged
attr title "Radio mode, vector"
vector 101 Scenario.node[5].wlan[0].radio radioChannel:vector ETV
attr interpolationmode sample-hold
attr source radioChannelChanged
attr title "Radio channel, vector"
vector 102 Scenario.node[5].wlan[0].radio receptionState:vector ETV
attr interpolationmode sample-hold
attr source receptionStateChanged
attr title "Radio reception state, vector"
vector 103 Scenario.node[5].wlan[0].mac.dcf.recoveryProcedure contentionWindowChanged:vector ETV
attr interpolationmode sample-hold
attr title "contention window, vector"
vector 104 Scenario.node[6].wlan[0].radio radioMode:vector ETV
attr interpolationmode sample-hold
attr source radioModeChanged
attr title "Radio mode, vector"
vector 105 Scenario.node[6].wlan[0].radio radioChannel:vector ETV
attr interpolationmode sample-hold
attr source radioChannelChanged
attr title "Radio channel, vector"
vector 106 Scenario.node[6].wlan[0].radio receptionState:vector ETV
attr interpolationmode sample-hold
attr source receptionStateChanged
attr title "Radio reception state, vector"
vector 107 Scenario.node[6].wlan[0].mac.dcf.recoveryProcedure contentionWindowChanged:vector ETV
attr interpolationmode sample-hold
attr title "contention window, vector"
59	766	71.000152351245	128
60	766	71.000152351245	128
48	759	71.000152351245	158
48	796	71.000375351245	158
84	814	71.000498351245	158
61	769	71.000152351245	130
52	759	71.000152351245	130
52	796	71.000375351245	130
51	759	71.000152351245	158
51	796	71.000375351245	158
50	759	71.000152351245	158
50	796	71.000375351245	158
49	759	71.000152351245	158
49	796	71.000375351245	158
89	822	71.000650351245	158
88	822	71.000650351245	158
87	822	71.000650351245	158
85	814	71.000498351245	1
85	822	71.000650351245	0
83	814	71.000498351245	12000000
81	814	71.000498351245	0.000346
80	814	71.000498351245	158
62	769	71.000152351245	158
63	769	71.000152351245	1
63	814	71.000498351245	0
90	822	71.000650351245	0.000152
82	814	71.000498351245	1
82	822	71.000650351245	0
65	769	71.000152351245	1
65	788	71.000223351245	0
65	795	71.000375351245	1
65	813	71.000498351245	0
64	769	71.000152351245	6
19	64	5.1	15
86	815	71.000498351245	1
86	816	71.000498351245	2
86	822	71.000650351245	1
86	823	71.000650351245	0
18	64	5.1	1
18	751	71.000000351245	3
18	758	71.000152351245	1
18	788	71.000223351245	3
18	795	71.000375351245	1
18	815	71.000498351245	0
18	823	71.000650351245	1
16	64	5.1	0
16	64	5.1	0
16	64	5.1	2
16	815	71.000498351245	3
16	823	71.000650351245	2
17	64	5.1	3
53	762	71.000152351245	108
53	770	71.000152351245	108
53	799	71.000375351245	108
58	764	71.000152351245	108
54	762	71.000152351245	1
54	770	71.000152351245	2
54	799	71.000375351245	3
56	763	0.1	0
56	763	0.2	0
56	763	0.3	0
56	763	0.4	0
56	763	0.5	0
56	763	0.6	0
56	763	0.7	0
56	763	0.8	0
56	763	0.9	0
56	763	1	0
56	763	1.1	0
56	763	1.2	0
56	763	1.3	0
56	763	1.4	0
56	763	1.5	0
56	763	1.6	0
56	763	1.7	0
56	763	1.8	0
56	763	1.9	0
56	763	2	0
56	763	2.1	0
56	763	2.2	0
56	763	2.3	0
56	763	2.4	0
56	763	2.5	0
56	763	2.6	0
56	763	2.7	0
56	763	2.8	0
56	763	2.9	0
56	763	3	0
56	763	3.1	0
56	763	3.2	0
56	763	3.3	0
56	763	3.4	0
56	763	3.5	0
56	763	3.6	0
56	763	3.7	0
56	763	3.8	0
56	763	3.9	0
56	763	4	0
56	763	4.1	0
56	763	4.2	0
56	763	4.3	0
56	763	4.4	0
56	763	4.5	0
56	763	4.6	0
56	763	4.7	0
56	763	4.8	0
56	763	4.9	0
56	763	5	0
56	763	5.1	0
56	763	5.2	0
56	763	5.3	0
56	763	5.4	0
56	763	5.5	0
56	763	5.6	0
56	763	5.7	0
56	763	5.8	0
56	763	5.9	0
56	763	6	0
56	763	6.1	0
56	763	6.2	0
56	763	6.3	0
56	763	6.4	0
56	763	6.5	0
56	763	6.6	0
56	763	6.7	0
56	763	6.8	0
56	763	6.9	0
56	763	7	0
56	763	7.1	0
56	763	7.2	0
56	763	7.3	0
56	763	7.4	0
56	763	7.5	0
56	763	7.6	0
56	763	7.7	0
56	763	7.8	0
56	763	7.9	0
56	763	8	0
56	763	8.1	0
56	763	8.2	0
56	763	8.3	0
56	763	8.4	0
56	763	8.5	0
56	763	8.6	0
56	763	8.7	0
56	763	8.8	0
56	763	8.9	0
56	763	9	0
56	763	9.1	0
56	763	9.2	0
56	763	9.3	0
56	763	9.4	0
56	763	9.5	0
56	763	9.6	0
56	763	9.7	0
56	763	9.8	0
56	763	9.9	0
56	763	10	0
56	763	10.1	0
56	763	10.2	0
56	763	10.3	0
56	763	10.4	0
56	763	10.5	0
56	763	10.6	0
56	763	10.7	0
56	763	10.8	0
56	763	10.9	0
56	763	11	0
56	763	11.1	0
56	763	11.2	0
56	763	11.3	0
56	763	11.4	0
56	763	11.5	0
56	763	11.6	0
56	763	11.7	0
56	763	11.8	0
56	763	11.9	0
56	763	12	0
56	763	12.1	0
56	763	12.2	0
56	763	12.3	0
56	763	12.4	0
56	763	12.5	0
56	763	12.6	0
56	763	12.7	0
56	763	12.8	0
56	763	12.9	0
56	763	13	0
56	763	13.1	0
56	763	13.2	0
56	763	13.3	0
56	763	13.4	0
56	763	13.5	0
56	763	13.6	0
56	763	13.7	0
56	763	13.8	0
56	763	13.9	0
56	763	14	0
56	763	14.1	0
56	763	14.2	0
56	763	14.3	0
56	763	14.4	0
56	763	14.5	0
56	763	14.6	0
56	763	14.7	0
56	763	14.8	0
56	763	14.9	0
56	763	15	0
56	763	15.1	0
56	763	15.2	0
56	763	15.3	0
56	763	15.4	0
56	763	15.5	0
56	763	15.6	0
56	763	15.7	0
56	763	15.8	0
56	763	15.9	0
56	763	16	0
56	763	16.1	0
56	763	16.2	0
56	763	16.3	0
56	763	16.4	0
56	763	16.5	0
56	763	16.6	0
56	763	16.7	0
56	763	16.8	0
56	763	16.9	0
56	763	17	0
56	763	17.1	0
56	763	17.2	0
56	763	17.3	0
56	763	17.4	0
56	763	17.5	0
56	763	17.6	0
56	763	17.7	0
56	763	17.8	0
56	763	17.9	0
56	763	18	0
56	763	18.1	0
56	763	18.2	0
56	763	18.3	0
56	763	18.4	0
56	763	18.5	0
56	763	18.6	0
56	763	18.7	0
56	763	18.8	0
56	763	18.9	0
56	763	19	0
56	763	19.1	0
56	763	19.2	0
56	763	19.3	0
56	763	19.4	0
56	763	19.5	0
56	763	19.6	0
56	763	19.7	0
56	763	19.8	0
56	763	19.9	0
56	763	20	0
56	763	20.1	0
56	763	20.2	0
56	763	20.3	0
56	763	20.4	0
56	763	20.5	0
56	763	20.6	0
56	763	20.7	0
56	763	20.8	0
56	763	20.9	0
56	763	21	0
56	763	21.1	0
56	763	21.2	0
56	763	21.3	0
56	763	21.4	0
56	763	21.5	0
56	763	21.6	0
56	763	21.7	0
56	763	21.8	0
56	763	21.9	0
56	763	22	0
56	763	22.1	0
56	763	22.2	0
56	763	22.3	0
56	763	22.4	0
56	763	22.5	0
56	763	22.6	0
56	763	22.7	0
56	763	22.8	0
56	763	22.9	0
56	763	23	0
56	763	23.1	0
56	763	23.2	0
56	763	23.3	0
56	763	23.4	0
56	763	23.5	0
56	763	23.6	0
56	763	23.7	0
56	763	23.8	0
56	763	23.9	0
56	763	24	0
56	763	24.1	0
56	763	24.2	0
56	763	24.3	0
56	763	24.4	0
56	763	24.5	0
56	763	24.6	0
56	763	24.7	0
56	763	24.8	0
56	763	24.9	0
56	763	25	0
56	763	25.1	0
56	763	25.2	0
56	763	25.3	0
56	763	25.4	0
56	763	25.5	0
56	763	25.6	0
56	763	25.7	0
56	763	25.8	0
56	763	25.9	0
56	763	26	0
56	763	26.1	0
56	763	26.2	0
56	763	26.3	0
56	763	26.4	0
56	763	26.5	0
56	763	26.6	0
56	763	26.7	0
56	763	26.8	0
56	763	26.9	0
56	763	27	0
56	763	27.1	0
56	763	27.2	0
56	763	27.3	0
56	763	27.4	0
56	763	27.5	0
56	763	27.6	0
56	763	27.7	0
56	763	27.8	0
56	763	27.9	0
56	763	28	0
56	763	28.1	0
56	763	28.2	0
56	763	28.3	0
56	763	28.4	0
56	763	28.5	0
56	763	28.6	0
56	763	28.7	0
56	763	28.8	0
56	763	28.9	0
56	763	29	0
56	763	29.1	0
56	763	29.2	0
56	763	29.3	0
56	763	29.4	0
56	763	29.5	0
56	763	29.6	0
56	763	29.7	0
56	763	29.8	0
56	763	29.9	0
56	763	30	0
56	763	30.1	0
56	763	30.2	0
56	763	30.3	0
56	763	30.4	0
56	763	30.5	0
56	763	30.6	0
56	763	30.7	0
56	763	30.8	0
56	763	30.9	0
56	763	31	0
56	763	31.1	0
56	763	31.2	0
56	763	31.3	0
56	763	31.4	0
56	763	31.5	0
56	763	31.6	0
56	763	31.7	0
56	763	31.8	0
56	763	31.9	0
56	763	32	0
56	763	32.1	0
56	763	32.2	0
56	763	32.3	0
56	763	32.4	0
56	763	32.5	0
56	763	32.6	0
56	763	32.7	0
56	763	32.8	0
56	763	32.9	0
56	763	33	0
56	763	33.1	0
56	763	33.2	0
56	763	33.3	0
56	763	33.4	0
56	763	33.5	0
56	763	33.6	0
56	763	33.7	0
56	763	33.8	0
56	763	33.9	0
56	763	34	0
56	763	34.1	0
56	763	34.2	0
56	763	34.3	0
56	763	34.4	0
56	763	34.5	0
56	763	34.6	0
56	763	34.7	0
56	763	34.8	0
56	763	34.9	0
56	763	35	0
56	763	35.1	0
56	763	35.2	0
56	763	35.3	0
56	763	35.4	0
56	763	35.5	0
56	763	35.6	0
56	763	35.7	0
56	763	35.8	0
56	763	35.9	0
56	763	36	0
56	763	36.1	0
56	763	36.2	0
56	763	36.3	0
56	763	36.4	0
56	763	36.5	0
56	763	36.6	0
56	763	36.7	0
56	763	36.8	0
56	763	36.9	0
56	763	37	0
56	763	37.1	0
56	763	37.2	0
56	763	37.3	0
56	763	37.4	0
56	763	37.5	0
56	763	37.6	0
56	763	37.7	0
56	763	37.8	0
56	763	37.9	0
56	763	38	0
56	763	38.1	0
56	763	38.2	0
56	763	38.3	0
56	763	38.4	0
56	763	38.5	0
56	763	38.6	0
56	763	38.7	0
56	763	38.8	0
56	763	38.9	0
56	763	39	0
56	763	39.1	0
56	763	39.2	0
56	763	39.3	0
56	763	39.4	0
56	763	39.5	0
56	763	39.6	0
56	763	39.7	0
56	763	39.8	0
56	763	39.9	0
56	763	40	0
56	763	40.1	0
56	763	40.2	0
56	763	40.3	0
56	763	40.4	0
56	763	40.5	0
56	763	40.6	0
56	763	40.7	0
56	763	40.8	0
56	763	40.9	0
56	763	41	0
56	763	41.1	0
56	763	41.2	0
56	763	41.3	0
56	763	41.4	0
56	763	41.5	0
56	763	41.6	0
56	763	41.7	0
56	763	41.8	0
56	763	41.9	0
56	763	42	0
56	763	42.1	0
56	763	42.2	0
56	763	42.3	0
56	763	42.4	0
56	763	42.5	0
56	763	42.6	0
56	763	42.7	0
56	763	42.8	0
56	763	42.9	0
56	763	43	0
56	763	43.1	0
56	763	43.2	0
56	763	43.3	0
56	763	43.4	0
56	763	43.5	0
56	763	43.6	0
56	763	43.7	0
56	763	43.8	0
56	763	43.9	0
56	763	44	0
56	763	44.1	0
56	763	44.2	0
56	763	44.3	0
56	763	44.4	0
56	763	44.5	0
56	763	44.6	0
56	763	44.7	0
56	763	44.8	0
56	763	44.9	0
56	763	45	0
56	763	45.1	0
56	763	45.2	0
56	763	45.3	0
56	763	45.4	0
56	763	45.5	0
56	763	45.6	0
56	763	45.7	0
56	763	45.8	0
56	763	45.9	0
56	763	46	0
56	763	46.1	0
56	763	46.2	0
56	763	46.3	0
56	763	46.4	0
56	763	46.5	0
56	763	46.6	0
56	763	46.7	0
56	763	46.8	0
56	763	46.9	0
56	763	47	0
56	763	47.1	0
56	763	47.2	0
56	763	47.3	0
56	763	47.4	0
56	763	47.5	0
56	763	47.6	0
56	763	47.7	0
56	763	47.8	0
56	763	47.9	0
56	763	48	0
56	763	48.1	0
56	763	48.2	0
56	763	48.3	0
56	763	48.4	0
56	763	48.5	0
56	763	48.6	0
56	763	48.7	0
56	763	48.8	0
56	763	48.9	0
56	763	49	0
56	763	49.1	0
56	763	49.2	0
56	763	49.3	0
56	763	49.4	0
56	763	49.5	0
56	763	49.6	0
56	763	49.7	0
56	763	49.8	0
56	763	49.9	0
56	763	50	0
56	763	50.1	0
56	763	50.2	0
56	763	50.3	0
56	763	50.4	0
56	763	50.5	0
56	763	50.6	0
56	763	50.7	0
56	763	50.8	0
56	763	50.9	0
56	763	51	0
56	763	51.1	0
56	763	51.2	0
56	763	51.3	0
56	763	51.4	0
56	763	51.5	0
56	763	51.6	0
56	763	51.7	0
56	763	51.8	0
56	763	51.9	0
56	763	52	0
56	763	52.1	0
56	763	52.2	0
56	763	52.3	0
56	763	52.4	0
56	763	52.5	0
56	763	52.6	0
56	763	52.7	0
56	763	52.8	0
56	763	52.9	0
56	763	53	0
56	763	53.1	0
56	763	53.2	0
56	763	53.3	0
56	763	53.4	0
56	763	53.5	0
56	763	53.6	0
56	763	53.7	0
56	763	53.8	0
56	763	53.9	0
56	763	54	0
56	763	54.1	0
56	763	54.2	0
56	763	54.3	0
56	763	54.4	0
56	763	54.5	0
56	763	54.6	0
56	763	54.7	0
56	763	54.8	0
56	763	54.9	0
56	763	55	0
56	763	55.1	0
56	763	55.2	0
56	763	55.3	0
56	763	55.4	0
56	763	55.5	0
56	763	55.6	0
56	763	55.7	0
56	763	55.8	0
56	763	55.9	0
56	763	56	0
56	763	56.1	0
56	763	56.2	0
56	763	56.3	0
56	763	56.4	0
56	763	56.5	0
56	763	56.6	0
56	763	56.7	0
56	763	56.8	0
56	763	56.9	0
56	763	57	0
56	763	57.1	0
56	763	57.2	0
56	763	57.3	0
56	763	57.4	0
56	763	57.5	0
56	763	57.6	0
56	763	57.7	0
56	763	57.8	0
56	763	57.9	0
56	763	58	0
56	763	58.1	0
56	763	58.2	0
56	763	58.3	0
56	763	58.4	0
56	763	58.5	0
56	763	58.6	0
56	763	58.7	0
56	763	58.8	0
56	763	58.9	0
56	763	59	0
56	763	59.1	0
56	763	59.2	0
56	763	59.3	0
56	763	59.4	0
56	763	59.5	0
56	763	59.6	0
56	763	59.7	0
56	763	59.8	0
56	763	59.9	0
56	763	60	0
56	763	60.1	0
56	763	60.2	0
56	763	60.3	0
56	763	60.4	0
56	763	60.5	0
56	763	60.6	0
56	763	60.7	0
56	763	60.8	0
56	763	60.9	0
56	763	61	0
56	763	61.1	0
56	763	61.2	0
56	763	61.3	0
56	763	61.4	0
56	763	61.5	0
56	763	61.6	0
56	763	61.7	0
56	763	61.8	0
56	763	61.9	0
56	763	62	0
56	763	62.1	0
56	763	62.2	0
56	763	62.3	0
56	763	62.4	0
56	763	62.5	0
56	763	62.6	0
56	763	62.7	0
56	763	62.8	0
56	763	62.9	0
56	763	63	0
56	763	63.1	0
56	763	63.2	0
56	763	63.3	0
56	763	63.4	0
56	763	63.5	0
56	763	63.6	0
56	763	63.7	0
56	763	63.8	0
56	763	63.9	0
56	763	64	0
56	763	64.1	0
56	763	64.2	0
56	763	64.3	0
56	763	64.4	0
56	763	64.5	0
56	763	64.6	0
56	763	64.7	0
56	763	64.8	0
56	763	64.9	0
56	763	65	0
56	763	65.1	0
56	763	65.2	0
56	763	65.3	0
56	763	65.4	0
56	763	65.5	0
56	763	65.6	0
56	763	65.7	0
56	763	65.8	0
56	763	65.9	0
56	763	66	0
56	763	66.1	0
56	763	66.2	0
56	763	66.3	0
56	763	66.4	0
56	763	66.5	0
56	763	66.6	0
56	763	66.7	0
56	763	66.8	0
56	763	66.9	0
56	763	67	0
56	763	67.1	0
56	763	67.2	0
56	763	67.3	0
56	763	67.4	0
56	763	67.5	0
56	763	67.6	0
56	763	67.7	0
56	763	67.8	0
56	763	67.9	0
56	763	68	0
56	763	68.1	0
56	763	68.2	0
56	763	68.3	0
56	763	68.4	0
56	763	68.5	0
56	763	68.6	0
56	763	68.7	0
56	763	68.8	0
56	763	68.9	0
56	763	69	0
56	763	69.1	0
56	763	69.2	0
56	763	69.3	0
56	763	69.4	0
56	763	69.5	0
56	763	69.6	0
56	763	69.7	0
56	763	69.8	0
56	763	69.9	0
56	763	70	0
56	763	70.1	0
56	763	70.2	0
56	763	70.3	0
56	763	70.4	0
56	763	70.5	0
56	763	70.6	0
56	763	70.7	0
56	763	70.8	0
56	763	70.9	0
56	763	71	0
56	1325	71.1	24000
56	1325	71.2	0
56	1325	71.3	0
56	1325	71.4	0
56	1325	71.5	0
56	1325	71.6	0
56	1325	71.7	0
56	1325	71.8	0
56	1325	71.9	0
56	1325	72	0
56	1325	72.1	0
56	1325	72.2	0
56	1325	72.3	0
56	1325	72.4	0
56	1325	72.5	0
56	1325	72.6	0
56	1325	72.7	0
56	1325	72.8	0
56	1325	72.9	0
56	1325	73	0
56	1325	73.1	0
56	1325	73.2	0
56	1325	73.3	0
56	1325	73.4	0
56	1325	73.5	0
56	1325	73.6	0
56	1325	73.7	0
56	1325	73.8	0
56	1325	73.9	0
56	1325	74	0
56	1325	74.1	0
56	1325	74.2	0
56	1325	74.3	0
56	1325	74.4	0
56	1325	74.5	0
56	1325	74.6	0
56	1325	74.7	0
56	1325	74.8	0
56	1325	74.9	0
56	1325	75	0
56	1325	75.1	0
56	1325	75.2	0
56	1325	75.3	0
56	1325	75.4	0
56	1325	75.5	0
56	1325	75.6	0
56	1325	75.7	0
56	1325	75.8	0
56	1325	75.9	0
56	1325	76	0
56	1325	76.1	0
56	1325	76.2	0
56	1325	76.3	0
56	1325	76.4	0
56	1325	76.5	0
56	1325	76.6	0
56	1325	76.7	0
56	1325	76.8	0
56	1325	76.9	0
56	1325	77	0
56	1325	77.1	0
56	1325	77.2	0
56	1325	77.3	0
56	1325	77.4	0
56	1325	77.5	0
56	1325	77.6	0
56	1325	77.7	0
56	1325	77.8	0
56	1325	77.9	0
56	1325	78	0
56	1325	78.1	0
56	1325	78.2	0
56	1325	78.3	0
56	1325	78.4	0
56	1325	78.5	0
56	1325	78.6	0
56	1325	78.7	0
56	1325	78.8	0
56	1325	78.9	0
56	1325	79	0
56	1325	79.1	0
56	1325	79.2	0
56	1325	79.3	0
56	1325	79.4	0
56	1325	79.5	0
56	1325	79.6	0
56	1325	79.7	0
56	1325	79.8	0
56	1325	79.9	0
56	1325	80	0
56	1325	80.1	0
56	1325	80.2	0
56	1325	80.3	0
56	1325	80.4	0
56	1325	80.5	0
56	1325	80.6	0
56	1325	80.7	0
56	1325	80.8	0
56	1325	80.9	0
56	1325	81	0
56	1325	81.1	0
56	1325	81.2	0
56	1325	81.3	0
56	1325	81.4	0
56	1325	81.5	0
56	1325	81.6	0
56	1325	81.7	0
56	1325	81.8	0
56	1325	81.9	0
56	1325	82	0
56	1325	82.1	0
56	1325	82.2	0
56	1325	82.3	0
56	1325	82.4	0
56	1325	82.5	0
56	1325	82.6	0
56	1325	82.7	0
56	1325	82.8	0
56	1325	82.9	0
56	1325	83	0
56	1325	83.1	0
56	1325	83.2	0
56	1325	83.3	0
56	1325	83.4	0
56	1325	83.5	0
56	1325	83.6	0
56	1325	83.7	0
56	1325	83.8	0
56	1325	83.9	0
56	1325	84	0
56	1325	84.1	0
56	1325	84.2	0
56	1325	84.3	0
56	1325	84.4	0
56	1325	84.5	0
56	1325	84.6	0
56	1325	84.7	0
56	1325	84.8	0
56	1325	84.9	0
56	1325	85	0
56	1325	85.1	0
56	1325	85.2	0
56	1325	85.3	0
56	1325	85.4	0
56	1325	85.5	0
56	1325	85.6	0
56	1325	85.7	0
56	1325	85.8	0
56	1325	85.9	0
56	1325	86	0
56	1325	86.1	0
56	1325	86.2	0
56	1325	86.3	0
56	1325	86.4	0
56	1325	86.5	0
56	1325	86.6	0
56	1325	86.7	0
56	1325	86.8	0
56	1325	86.9	0
56	1325	87	0
56	1325	87.1	0
56	1325	87.2	0
56	1325	87.3	0
56	1325	87.4	0
56	1325	87.5	0
56	1325	87.6	0
56	1325	87.7	0
56	1325	87.8	0
56	1325	87.9	0
56	1325	88	0
56	1325	88.1	0
56	1325	88.2	0
56	1325	88.3	0
56	1325	88.4	0
56	1325	88.5	0
56	1325	88.6	0
56	1325	88.7	0
56	1325	88.8	0
56	1325	88.9	0
56	1325	89	0
56	1325	89.1	0
56	1325	89.2	0
56	1325	89.3	0
56	1325	89.4	0
56	1325	89.5	0
56	1325	89.6	0
56	1325	89.7	0
56	1325	89.8	0
56	1325	89.9	0
56	1325	90	0
56	1325	90.1	0
56	1325	90.2	0
56	1325	90.3	0
56	1325	90.4	0
56	1325	90.5	0
56	1325	90.6	0
56	1325	90.7	0
56	1325	90.8	0
56	1325	90.9	0
56	1325	91	0
56	1325	91.1	0
56	1325	91.2	0
56	1325	91.3	0
56	1325	91.4	0
56	1325	91.5	0
56	1325	91.6	0
56	1325	91.7	0
56	1325	91.8	0
56	1325	91.9	0
56	1325	92	0
56	1325	92.1	0
56	1325	92.2	0
56	1325	92.3	0
56	1325	92.4	0
56	1325	92.5	0
56	1325	92.6	0
56	1325	92.7	0
56	1325	92.8	0
56	1325	92.9	0
56	1325	93	0
56	1325	93.1	0
56	1325	93.2	0
56	1325	93.3	0
56	1325	93.4	0
56	1325	93.5	0
56	1325	93.6	0
56	1325	93.7	0
56	1325	93.8	0
56	1325	93.9	0
56	1325	94	0
56	1325	94.1	0
56	1325	94.2	0
56	1325	94.3	0
56	1325	94.4	0
56	1325	94.5	0
56	1325	94.6	0
56	1325	94.7	0
56	1325	94.8	0
56	1325	94.9	0
56	1325	95	0
56	1325	95.1	0
56	1325	95.2	0
56	1325	95.3	0
56	1325	95.4	0
56	1325	95.5	0
56	1325	95.6	0
56	1325	95.7	0
56	1325	95.8	0
56	1325	95.9	0
56	1325	96	0
56	1325	96.1	0
56	1325	96.2	0
56	1325	96.3	0
56	1325	96.4	0
56	1325	96.5	0
56	1325	96.6	0
56	1325	96.7	0
56	1325	96.8	0
56	1325	96.9	0
56	1325	97	0
56	1325	97.1	0
56	1325	97.2	0
56	1325	97.3	0
56	1325	97.4	0
56	1325	97.5	0
56	1325	97.6	0
56	1325	97.7	0
56	1325	97.8	0
56	1325	97.9	0
56	1325	98	0
56	1325	98.1	0
56	1325	98.2	0
56	1325	98.3	0
56	1325	98.4	0
56	1325	98.5	0
56	1325	98.6	0
56	1325	98.7	0
56	1325	98.8	0
56	1325	98.9	0
56	1325	99	0
56	1325	99.1	0
56	1325	99.2	0
56	1325	99.3	0
56	1325	99.4	0
56	1325	99.5	0
56	1325	99.6	0
56	1325	99.7	0
56	1325	99.8	0
56	1325	99.9	0
56	1325	100	0
56	1325	100.1	0
56	1325	100.2	0
56	1325	100.3	0
56	1325	100.4	0
56	1325	100.5	0
56	1325	100.6	0
56	1325	100.7	0
56	1325	100.8	0
56	1325	100.9	0
56	1325	101	0
56	1325	101.1	0
56	1325	101.2	0
56	1325	101.3	0
56	1325	101.4	0
56	1325	101.5	0
56	1325	101.6	0
56	1325	101.7	0
56	1325	101.8	0
56	1325	101.9	0
56	1325	102	0
56	1325	102.1	0
56	1325	102.2	0
56	1325	102.3	0
56	1325	102.4	0
56	1325	102.5	0
56	1325	102.6	0
56	1325	102.7	0
56	1325	102.8	0
56	1325	102.9	0
56	1325	103	0
56	1325	103.1	0
56	1325	103.2	0
56	1325	103.3	0
56	1325	103.4	0
56	1325	103.5	0
56	1325	103.6	0
56	1325	103.7	0
56	1325	103.8	0
56	1325	103.9	0
56	1325	104	0
56	1325	104.1	0
56	1325	104.2	0
56	1325	104.3	0
56	1325	104.4	0
56	1325	104.5	0
56	1325	104.6	0
56	1325	104.7	0
56	1325	104.8	0
56	1325	104.9	0
56	1325	105	0
56	1325	105.1	0
56	1325	105.2	0
56	1325	105.3	0
56	1325	105.4	0
56	1325	105.5	0
56	1325	105.6	0
56	1325	105.7	0
56	1325	105.8	0
56	1325	105.9	0
56	1325	106	0
56	1325	106.1	0
56	1325	106.2	0
56	1325	106.3	0
56	1325	106.4	0
56	1325	106.5	0
56	1325	106.6	0
56	1325	106.7	0
56	1325	106.8	0
56	1325	106.9	0
56	1325	107	0
56	1325	107.1	0
56	1325	107.2	0
56	1325	107.3	0
56	1325	107.4	0
56	1325	107.5	0
56	1325	107.6	0
56	1325	107.7	0
56	1325	107.8	0
56	1325	107.9	0
56	1325	108	0
56	1325	108.1	0
56	1325	108.2	0
56	1325	108.3	0
56	1325	108.4	0
56	1325	108.5	0
56	1325	108.6	0
56	1325	108.7	0
56	1325	108.8	0
56	1325	108.9	0
56	1325	109	0
56	1325	109.1	0
56	1325	109.2	0
56	1325	109.3	0
56	1325	109.4	0
56	1325	109.5	0
56	1325	109.6	0
56	1325	109.7	0
56	1325	109.8	0
56	1325	109.9	0
56	1325	110	0
56	1325	110.1	0
56	1325	110.2	0
56	1325	110.3	0
56	1325	110.4	0
56	1325	110.5	0
56	1325	110.6	0
56	1325	110.7	0
56	1325	110.8	0
56	1325	110.9	0
56	1325	111	0
56	1325	111.1	0
56	1325	111.2	0
56	1325	111.3	0
56	1325	111.4	0
56	1325	111.5	0
56	1325	111.6	0
56	1325	111.7	0
56	1325	111.8	0
56	1325	111.9	0
56	1325	112	0
56	1325	112.1	0
56	1325	112.2	0
56	1325	112.3	0
56	1325	112.4	0
56	1325	112.5	0
56	1325	112.6	0
56	1325	112.7	0
56	1325	112.8	0
56	1325	112.9	0
56	1325	113	0
56	1325	113.1	0
56	1325	113.2	0
56	1325	113.3	0
56	1325	113.4	0
56	1325	113.5	0
56	1325	113.6	0
56	1325	113.7	0
56	1325	113.8	0
56	1325	113.9	0
56	1325	114	0
56	1325	114.1	0
56	1325	114.2	0
56	1325	114.3	0
56	1325	114.4	0
56	1325	114.5	0
56	1325	114.6	0
56	1325	114.7	0
56	1325	114.8	0
56	1325	114.9	0
56	1325	115	0
56	1325	115.1	0
56	1325	115.2	0
56	1325	115.3	0
56	1325	115.4	0
56	1325	115.5	0
56	1325	115.6	0
56	1325	115.7	0
56	1325	115.8	0
56	1325	115.9	0
56	1325	116	0
56	1325	116.1	0
56	1325	116.2	0
56	1325	116.3	0
56	1325	116.4	0
56	1325	116.5	0
56	1325	116.6	0
56	1325	116.7	0
56	1325	116.8	0
56	1325	116.9	0
56	1325	117	0
56	1325	117.1	0
56	1325	117.2	0
56	1325	117.3	0
56	1325	117.4	0
56	1325	117.5	0
56	1325	117.6	0
56	1325	117.7	0
56	1325	117.8	0
56	1325	117.9	0
56	1325	118	0
56	1325	118.1	0
55	763	71.000152351245	100
55	771	71.000152351245	100
55	800	71.000375351245	100
57	763	71.000152351245	100
26	733	71	128
26	741	71	128
27	733	71	128
27	741	71	128
91	825	71.00065070249	158
41	748	71	158
41	785	71.000223	158
28	736	71	130
28	744	71	130
95	825	71.00065070249	130
94	825	71.00065070249	158
93	825	71.00065070249	158
92	825	71.00065070249	158
46	756	71.000152	158
46	793	71.000375	158
45	756	71.000152	158
45	793	71.000375	158
44	756	71.000152	158
44	793	71.000375	158
42	748	71	1
42	756	71.000152	0
42	785	71.000223	1
42	793	71.000375	0
40	748	71	12000000
40	785	71.000223	12000000
38	748	71	0
38	748	71	0
37	748	71	158
37	748	71	158
29	736	71	158
29	744	71	158
30	736	71	1
30	744	71	2
30	748	71	1
30	748	71	0
47	756	71.000152	0.000152
47	793	71.000375	0.000375
39	748	71	1
39	748	71	2
39	756	71.000152	1
39	793	71.000375	0
32	736	71	1
32	747	71	0
32	757	71.000152	1
32	784	71.000223	0
31	736	71	10
31	756	71.000152	1
11	18	1.1	15
43	749	71	1
43	750	71	2
43	756	71.000152	1
43	757	71.000152	0
43	786	71.000223	1
43	787	71.000223	2
43	793	71.000375	1
43	794	71.000375	0
10	18	1.1	1
10	749	71	0
10	757	71.000152	1
10	786	71.000223	0
10	794	71.000375	1
10	817	71.00049870249	3
10	824	71.00065070249	1
8	18	1.1	0
8	18	1.1	0
8	18	1.1	2
8	749	71	3
8	757	71.000152	2
8	786	71.000223	3
8	794	71.000375	2
9	18	1.1	3
33	737	71	108
33	745	71	108
33	828	71.00065070249	108
25	731	71	108
25	739	71	108
34	737	71	1
34	745	71	2
34	828	71.00065070249	3
36	738	0.1	0
36	738	0.2	0
36	738	0.3	0
36	738	0.4	0
36	738	0.5	0
36	738	0.6	0
36	738	0.7	0
36	738	0.8	0
36	738	0.9	0
36	738	1	0
36	738	1.1	0
36	738	1.2	0
36	738	1.3	0
36	738	1.4	0
36	738	1.5	0
36	738	1.6	0
36	738	1.7	0
36	738	1.8	0
36	738	1.9	0
36	738	2	0
36	738	2.1	0
36	738	2.2	0
36	738	2.3	0
36	738	2.4	0
36	738	2.5	0
36	738	2.6	0
36	738	2.7	0
36	738	2.8	0
36	738	2.9	0
36	738	3	0
36	738	3.1	0
36	738	3.2	0
36	738	3.3	0
36	738	3.4	0
36	738	3.5	0
36	738	3.6	0
36	738	3.7	0
36	738	3.8	0
36	738	3.9	0
36	738	4	0
36	738	4.1	0
36	738	4.2	0
36	738	4.3	0
36	738	4.4	0
36	738	4.5	0
36	738	4.6	0
36	738	4.7	0
36	738	4.8	0
36	738	4.9	0
36	738	5	0
36	738	5.1	0
36	738	5.2	0
36	738	5.3	0
36	738	5.4	0
36	738	5.5	0
36	738	5.6	0
36	738	5.7	0
36	738	5.8	0
36	738	5.9	0
36	738	6	0
36	738	6.1	0
36	738	6.2	0
36	738	6.3	0
36	738	6.4	0
36	738	6.5	0
36	738	6.6	0
36	738	6.7	0
36	738	6.8	0
36	738	6.9	0
36	738	7	0
36	738	7.1	0
36	738	7.2	0
36	738	7.3	0
36	738	7.4	0
36	738	7.5	0
36	738	7.6	0
36	738	7.7	0
36	738	7.8	0
36	738	7.9	0
36	738	8	0
36	738	8.1	0
36	738	8.2	0
36	738	8.3	0
36	738	8.4	0
36	738	8.5	0
36	738	8.6	0
36	738	8.7	0
36	738	8.8	0
36	738	8.9	0
36	738	9	0
36	738	9.1	0
36	738	9.2	0
36	738	9.3	0
36	738	9.4	0
36	738	9.5	0
36	738	9.6	0
36	738	9.7	0
36	738	9.8	0
36	738	9.9	0
36	738	10	0
36	738	10.1	0
36	738	10.2	0
36	738	10.3	0
36	738	10.4	0
36	738	10.5	0
36	738	10.6	0
36	738	10.7	0
36	738	10.8	0
36	738	10.9	0
36	738	11	0
36	738	11.1	0
36	738	11.2	0
36	738	11.3	0
36	738	11.4	0
36	738	11.5	0
36	738	11.6	0
36	738	11.7	0
36	738	11.8	0
36	738	11.9	0
36	738	12	0
36	738	12.1	0
36	738	12.2	0
36	738	12.3	0
36	738	12.4	0
36	738	12.5	0
36	738	12.6	0
36	738	12.7	0
36	738	12.8	0
36	738	12.9	0
36	738	13	0
36	738	13.1	0
36	738	13.2	0
36	738	13.3	0
36	738	13.4	0
36	738	13.5	0
36	738	13.6	0
36	738	13.7	0
36	738	13.8	0
36	738	13.9	0
36	738	14	0
36	738	14.1	0
36	738	14.2	0
36	738	14.3	0
36	738	14.4	0
36	738	14.5	0
36	738	14.6	0
36	738	14.7	0
36	738	14.8	0
36	738	14.9	0
36	738	15	0
36	738	15.1	0
36	738	15.2	0
36	738	15.3	0
36	738	15.4	0
36	738	15.5	0
36	738	15.6	0
36	738	15.7	0
36	738	15.8	0
36	738	15.9	0
36	738	16	0
36	738	16.1	0
36	738	16.2	0
36	738	16.3	0
36	738	16.4	0
36	738	16.5	0
36	738	16.6	0
36	738	16.7	0
36	738	16.8	0
36	738	16.9	0
36	738	17	0
36	738	17.1	0
36	738	17.2	0
36	738	17.3	0
36	738	17.4	0
36	738	17.5	0
36	738	17.6	0
36	738	17.7	0
36	738	17.8	0
36	738	17.9	0
36	738	18	0
36	738	18.1	0
36	738	18.2	0
36	738	18.3	0
36	738	18.4	0
36	738	18.5	0
36	738	18.6	0
36	738	18.7	0
36	738	18.8	0
36	738	18.9	0
36	738	19	0
36	738	19.1	0
36	738	19.2	0
36	738	19.3	0
36	738	19.4	0
36	738	19.5	0
36	738	19.6	0
36	738	19.7	0
36	738	19.8	0
36	738	19.9	0
36	738	20	0
36	738	20.1	0
36	738	20.2	0
36	738	20.3	0
36	738	20.4	0
36	738	20.5	0
36	738	20.6	0
36	738	20.7	0
36	738	20.8	0
36	738	20.9	0
36	738	21	0
36	738	21.1	0
36	738	21.2	0
36	738	21.3	0
36	738	21.4	0
36	738	21.5	0
36	738	21.6	0
36	738	21.7	0
36	738	21.8	0
36	738	21.9	0
36	738	22	0
36	738	22.1	0
36	738	22.2	0
36	738	22.3	0
36	738	22.4	0
36	738	22.5	0
36	738	22.6	0
36	738	22.7	0
36	738	22.8	0
36	738	22.9	0
36	738	23	0
36	738	23.1	0
36	738	23.2	0
36	738	23.3	0
36	738	23.4	0
36	738	23.5	0
36	738	23.6	0
36	738	23.7	0
36	738	23.8	0
36	738	23.9	0
36	738	24	0
36	738	24.1	0
36	738	24.2	0
36	738	24.3	0
36	738	24.4	0
36	738	24.5	0
36	738	24.6	0
36	738	24.7	0
36	738	24.8	0
36	738	24.9	0
36	738	25	0
36	738	25.1	0
36	738	25.2	0
36	738	25.3	0
36	738	25.4	0
36	738	25.5	0
36	738	25.6	0
36	738	25.7	0
36	738	25.8	0
36	738	25.9	0
36	738	26	0
36	738	26.1	0
36	738	26.2	0
36	738	26.3	0
36	738	26.4	0
36	738	26.5	0
36	738	26.6	0
36	738	26.7	0
36	738	26.8	0
36	738	26.9	0
36	738	27	0
36	738	27.1	0
36	738	27.2	0
36	738	27.3	0
36	738	27.4	0
36	738	27.5	0
36	738	27.6	0
36	738	27.7	0
36	738	27.8	0
36	738	27.9	0
36	738	28	0
36	738	28.1	0
36	738	28.2	0
36	738	28.3	0
36	738	28.4	0
36	738	28.5	0
36	738	28.6	0
36	738	28.7	0
36	738	28.8	0
36	738	28.9	0
36	738	29	0
36	738	29.1	0
36	738	29.2	0
36	738	29.3	0
36	738	29.4	0
36	738	29.5	0
36	738	29.6	0
36	738	29.7	0
36	738	29.8	0
36	738	29.9	0
36	738	30	0
36	738	30.1	0
36	738	30.2	0
36	738	30.3	0
36	738	30.4	0
36	738	30.5	0
36	738	30.6	0
36	738	30.7	0
36	738	30.8	0
36	738	30.9	0
36	738	31	0
36	738	31.1	0
36	738	31.2	0
36	738	31.3	0
36	738	31.4	0
36	738	31.5	0
36	738	31.6	0
36	738	31.7	0
36	738	31.8	0
36	738	31.9	0
36	738	32	0
36	738	32.1	0
36	738	32.2	0
36	738	32.3	0
36	738	32.4	0
36	738	32.5	0
36	738	32.6	0
36	738	32.7	0
36	738	32.8	0
36	738	32.9	0
36	738	33	0
36	738	33.1	0
36	738	33.2	0
36	738	33.3	0
36	738	33.4	0
36	738	33.5	0
36	738	33.6	0
36	738	33.7	0
36	738	33.8	0
36	738	33.9	0
36	738	34	0
36	738	34.1	0
36	738	34.2	0
36	738	34.3	0
36	738	34.4	0
36	738	34.5	0
36	738	34.6	0
36	738	34.7	0
36	738	34.8	0
36	738	34.9	0
36	738	35	0
36	738	35.1	0
36	738	35.2	0
36	738	35.3	0
36	738	35.4	0
36	738	35.5	0
36	738	35.6	0
36	738	35.7	0
36	738	35.8	0
36	738	35.9	0
36	738	36	0
36	738	36.1	0
36	738	36.2	0
36	738	36.3	0
36	738	36.4	0
36	738	36.5	0
36	738	36.6	0
36	738	36.7	0
36	738	36.8	0
36	738	36.9	0
36	738	37	0
36	738	37.1	0
36	738	37.2	0
36	738	37.3	0
36	738	37.4	0
36	738	37.5	0
36	738	37.6	0
36	738	37.7	0
36	738	37.8	0
36	738	37.9	0
36	738	38	0
36	738	38.1	0
36	738	38.2	0
36	738	38.3	0
36	738	38.4	0
36	738	38.5	0
36	738	38.6	0
36	738	38.7	0
36	738	38.8	0
36	738	38.9	0
36	738	39	0
36	738	39.1	0
36	738	39.2	0
36	738	39.3	0
36	738	39.4	0
36	738	39.5	0
36	738	39.6	0
36	738	39.7	0
36	738	39.8	0
36	738	39.9	0
36	738	40	0
36	738	40.1	0
36	738	40.2	0
36	738	40.3	0
36	738	40.4	0
36	738	40.5	0
36	738	40.6	0
36	738	40.7	0
36	738	40.8	0
36	738	40.9	0
36	738	41	0
36	738	41.1	0
36	738	41.2	0
36	738	41.3	0
36	738	41.4	0
36	738	41.5	0
36	738	41.6	0
36	738	41.7	0
36	738	41.8	0
36	738	41.9	0
36	738	42	0
36	738	42.1	0
36	738	42.2	0
36	738	42.3	0
36	738	42.4	0
36	738	42.5	0
36	738	42.6	0
36	738	42.7	0
36	738	42.8	0
36	738	42.9	0
36	738	43	0
36	738	43.1	0
36	738	43.2	0
36	738	43.3	0
36	738	43.4	0
36	738	43.5	0
36	738	43.6	0
36	738	43.7	0
36	738	43.8	0
36	738	43.9	0
36	738	44	0
36	738	44.1	0
36	738	44.2	0
36	738	44.3	0
36	738	44.4	0
36	738	44.5	0
36	738	44.6	0
36	738	44.7	0
36	738	44.8	0
36	738	44.9	0
36	738	45	0
36	738	45.1	0
36	738	45.2	0
36	738	45.3	0
36	738	45.4	0
36	738	45.5	0
36	738	45.6	0
36	738	45.7	0
36	738	45.8	0
36	738	45.9	0
36	738	46	0
36	738	46.1	0
36	738	46.2	0
36	738	46.3	0
36	738	46.4	0
36	738	46.5	0
36	738	46.6	0
36	738	46.7	0
36	738	46.8	0
36	738	46.9	0
36	738	47	0
36	738	47.1	0
36	738	47.2	0
36	738	47.3	0
36	738	47.4	0
36	738	47.5	0
36	738	47.6	0
36	738	47.7	0
36	738	47.8	0
36	738	47.9	0
36	738	48	0
36	738	48.1	0
36	738	48.2	0
36	738	48.3	0
36	738	48.4	0
36	738	48.5	0
36	738	48.6	0
36	738	48.7	0
36	738	48.8	0
36	738	48.9	0
36	738	49	0
36	738	49.1	0
36	738	49.2	0
36	738	49.3	0
36	738	49.4	0
36	738	49.5	0
36	738	49.6	0
36	738	49.7	0
36	738	49.8	0
36	738	49.9	0
36	738	50	0
36	738	50.1	0
36	738	50.2	0
36	738	50.3	0
36	738	50.4	0
36	738	50.5	0
36	738	50.6	0
36	738	50.7	0
36	738	50.8	0
36	738	50.9	0
36	738	51	0
36	738	51.1	0
36	738	51.2	0
36	738	51.3	0
36	738	51.4	0
36	738	51.5	0
36	738	51.6	0
36	738	51.7	0
36	738	51.8	0
36	738	51.9	0
36	738	52	0
36	738	52.1	0
36	738	52.2	0
36	738	52.3	0
36	738	52.4	0
36	738	52.5	0
36	738	52.6	0
36	738	52.7	0
36	738	52.8	0
36	738	52.9	0
36	738	53	0
36	738	53.1	0
36	738	53.2	0
36	738	53.3	0
36	738	53.4	0
36	738	53.5	0
36	738	53.6	0
36	738	53.7	0
36	738	53.8	0
36	738	53.9	0
36	738	54	0
36	738	54.1	0
36	738	54.2	0
36	738	54.3	0
36	738	54.4	0
36	738	54.5	0
36	738	54.6	0
36	738	54.7	0
36	738	54.8	0
36	738	54.9	0
36	738	55	0
36	738	55.1	0
36	738	55.2	0
36	738	55.3	0
36	738	55.4	0
36	738	55.5	0
36	738	55.6	0
36	738	55.7	0
36	738	55.8	0
36	738	55.9	0
36	738	56	0
36	738	56.1	0
36	738	56.2	0
36	738	56.3	0
36	738	56.4	0
36	738	56.5	0
36	738	56.6	0
36	738	56.7	0
36	738	56.8	0
36	738	56.9	0
36	738	57	0
36	738	57.1	0
36	738	57.2	0
36	738	57.3	0
36	738	57.4	0
36	738	57.5	0
36	738	57.6	0
36	738	57.7	0
36	738	57.8	0
36	738	57.9	0
36	738	58	0
36	738	58.1	0
36	738	58.2	0
36	738	58.3	0
36	738	58.4	0
36	738	58.5	0
36	738	58.6	0
36	738	58.7	0
36	738	58.8	0
36	738	58.9	0
36	738	59	0
36	738	59.1	0
36	738	59.2	0
36	738	59.3	0
36	738	59.4	0
36	738	59.5	0
36	738	59.6	0
36	738	59.7	0
36	738	59.8	0
36	738	59.9	0
36	738	60	0
36	738	60.1	0
36	738	60.2	0
36	738	60.3	0
36	738	60.4	0
36	738	60.5	0
36	738	60.6	0
36	738	60.7	0
36	738	60.8	0
36	738	60.9	0
36	738	61	0
36	738	61.1	0
36	738	61.2	0
36	738	61.3	0
36	738	61.4	0
36	738	61.5	0
36	738	61.6	0
36	738	61.7	0
36	738	61.8	0
36	738	61.9	0
36	738	62	0
36	738	62.1	0
36	738	62.2	0
36	738	62.3	0
36	738	62.4	0
36	738	62.5	0
36	738	62.6	0
36	738	62.7	0
36	738	62.8	0
36	738	62.9	0
36	738	63	0
36	738	63.1	0
36	738	63.2	0
36	738	63.3	0
36	738	63.4	0
36	738	63.5	0
36	738	63.6	0
36	738	63.7	0
36	738	63.8	0
36	738	63.9	0
36	738	64	0
36	738	64.1	0
36	738	64.2	0
36	738	64.3	0
36	738	64.4	0
36	738	64.5	0
36	738	64.6	0
36	738	64.7	0
36	738	64.8	0
36	738	64.9	0
36	738	65	0
36	738	65.1	0
36	738	65.2	0
36	738	65.3	0
36	738	65.4	0
36	738	65.5	0
36	738	65.6	0
36	738	65.7	0
36	738	65.8	0
36	738	65.9	0
36	738	66	0
36	738	66.1	0
36	738	66.2	0
36	738	66.3	0
36	738	66.4	0
36	738	66.5	0
36	738	66.6	0
36	738	66.7	0
36	738	66.8	0
36	738	66.9	0
36	738	67	0
36	738	67.1	0
36	738	67.2	0
36	738	67.3	0
36	738	67.4	0
36	738	67.5	0
36	738	67.6	0
36	738	67.7	0
36	738	67.8	0
36	738	67.9	0
36	738	68	0
36	738	68.1	0
36	738	68.2	0
36	738	68.3	0
36	738	68.4	0
36	738	68.5	0
36	738	68.6	0
36	738	68.7	0
36	738	68.8	0
36	738	68.9	0
36	738	69	0
36	738	69.1	0
36	738	69.2	0
36	738	69.3	0
36	738	69.4	0
36	738	69.5	0
36	738	69.6	0
36	738	69.7	0
36	738	69.8	0
36	738	69.9	0
36	738	70	0
36	738	70.1	0
36	738	70.2	0
36	738	70.3	0
36	738	70.4	0
36	738	70.5	0
36	738	70.6	0
36	738	70.7	0
36	738	70.8	0
36	738	70.9	0
36	738	71	0
36	1695	71.1	24000
36	1695	71.2	0
36	1695	71.3	0
36	1695	71.4	0
36	1695	71.5	0
36	1695	71.6	0
36	1695	71.7	0
36	1695	71.8	0
36	1695	71.9	0
36	1695	72	0
36	1695	72.1	0
36	1695	72.2	0
36	1695	72.3	0
36	1695	72.4	0
36	1695	72.5	0
36	1695	72.6	0
36	1695	72.7	0
36	1695	72.8	0
36	1695	72.9	0
36	1695	73	0
36	1695	73.1	0
36	1695	73.2	0
36	1695	73.3	0
36	1695	73.4	0
36	1695	73.5	0
36	1695	73.6	0
36	1695	73.7	0
36	1695	73.8	0
36	1695	73.9	0
36	1695	74	0
36	1695	74.1	0
36	1695	74.2	0
36	1695	74.3	0
36	1695	74.4	0
36	1695	74.5	0
36	1695	74.6	0
36	1695	74.7	0
36	1695	74.8	0
36	1695	74.9	0
36	1695	75	0
36	1695	75.1	0
36	1695	75.2	0
36	1695	75.3	0
36	1695	75.4	0
36	1695	75.5	0
36	1695	75.6	0
36	1695	75.7	0
36	1695	75.8	0
36	1695	75.9	0
36	1695	76	0
36	1695	76.1	0
36	1695	76.2	0
36	1695	76.3	0
36	1695	76.4	0
36	1695	76.5	0
36	1695	76.6	0
36	1695	76.7	0
36	1695	76.8	0
36	1695	76.9	0
36	1695	77	0
36	1695	77.1	0
36	1695	77.2	0
36	1695	77.3	0
36	1695	77.4	0
36	1695	77.5	0
36	1695	77.6	0
36	1695	77.7	0
36	1695	77.8	0
36	1695	77.9	0
36	1695	78	0
36	1695	78.1	0
36	1695	78.2	0
36	1695	78.3	0
36	1695	78.4	0
36	1695	78.5	0
36	1695	78.6	0
36	1695	78.7	0
36	1695	78.8	0
36	1695	78.9	0
36	1695	79	0
36	1695	79.1	0
36	1695	79.2	0
36	1695	79.3	0
36	1695	79.4	0
36	1695	79.5	0
36	1695	79.6	0
36	1695	79.7	0
36	1695	79.8	0
36	1695	79.9	0
36	1695	80	0
36	1695	80.1	0
36	1695	80.2	0
36	1695	80.3	0
36	1695	80.4	0
36	1695	80.5	0
36	1695	80.6	0
36	1695	80.7	0
36	1695	80.8	0
36	1695	80.9	0
36	1695	81	0
36	1695	81.1	0
36	1695	81.2	0
36	1695	81.3	0
36	1695	81.4	0
36	1695	81.5	0
36	1695	81.6	0
36	1695	81.7	0
36	1695	81.8	0
36	1695	81.9	0
36	1695	82	0
36	1695	82.1	0
36	1695	82.2	0
36	1695	82.3	0
36	1695	82.4	0
36	1695	82.5	0
36	1695	82.6	0
36	1695	82.7	0
36	1695	82.8	0
36	1695	82.9	0
36	1695	83	0
36	1695	83.1	0
36	1695	83.2	0
36	1695	83.3	0
36	1695	83.4	0
36	1695	83.5	0
36	1695	83.6	0
36	1695	83.7	0
36	1695	83.8	0
36	1695	83.9	0
36	1695	84	0
36	1695	84.1	0
36	1695	84.2	0
36	1695	84.3	0
36	1695	84.4	0
36	1695	84.5	0
36	1695	84.6	0
36	1695	84.7	0
36	1695	84.8	0
36	1695	84.9	0
36	1695	85	0
36	1695	85.1	0
36	1695	85.2	0
36	1695	85.3	0
36	1695	85.4	0
36	1695	85.5	0
36	1695	85.6	0
36	1695	85.7	0
36	1695	85.8	0
36	1695	85.9	0
36	1695	86	0
36	1695	86.1	0
36	1695	86.2	0
36	1695	86.3	0
36	1695	86.4	0
36	1695	86.5	0
36	1695	86.6	0
36	1695	86.7	0
36	1695	86.8	0
36	1695	86.9	0
36	1695	87	0
36	1695	87.1	0
36	1695	87.2	0
36	1695	87.3	0
36	1695	87.4	0
36	1695	87.5	0
36	1695	87.6	0
36	1695	87.7	0
36	1695	87.8	0
36	1695	87.9	0
36	1695	88	0
36	1695	88.1	0
36	1695	88.2	0
36	1695	88.3	0
36	1695	88.4	0
36	1695	88.5	0
36	1695	88.6	0
36	1695	88.7	0
36	1695	88.8	0
36	1695	88.9	0
36	1695	89	0
36	1695	89.1	0
36	1695	89.2	0
36	1695	89.3	0
36	1695	89.4	0
36	1695	89.5	0
36	1695	89.6	0
36	1695	89.7	0
36	1695	89.8	0
36	1695	89.9	0
36	1695	90	0
36	1695	90.1	0
36	1695	90.2	0
36	1695	90.3	0
36	1695	90.4	0
36	1695	90.5	0
36	1695	90.6	0
36	1695	90.7	0
36	1695	90.8	0
36	1695	90.9	0
36	1695	91	0
36	1695	91.1	0
36	1695	91.2	0
36	1695	91.3	0
36	1695	91.4	0
36	1695	91.5	0
36	1695	91.6	0
36	1695	91.7	0
36	1695	91.8	0
36	1695	91.9	0
36	1695	92	0
36	1695	92.1	0
36	1695	92.2	0
36	1695	92.3	0
36	1695	92.4	0
36	1695	92.5	0
36	1695	92.6	0
36	1695	92.7	0
36	1695	92.8	0
36	1695	92.9	0
36	1695	93	0
36	1695	93.1	0
36	1695	93.2	0
36	1695	93.3	0
36	1695	93.4	0
36	1695	93.5	0
36	1695	93.6	0
36	1695	93.7	0
36	1695	93.8	0
36	1695	93.9	0
36	1695	94	0
36	1695	94.1	0
36	1695	94.2	0
36	1695	94.3	0
36	1695	94.4	0
36	1695	94.5	0
36	1695	94.6	0
36	1695	94.7	0
36	1695	94.8	0
36	1695	94.9	0
36	1695	95	0
36	1695	95.1	0
36	1695	95.2	0
36	1695	95.3	0
36	1695	95.4	0
36	1695	95.5	0
36	1695	95.6	0
36	1695	95.7	0
36	1695	95.8	0
36	1695	95.9	0
36	1695	96	0
36	1695	96.1	0
36	1695	96.2	0
36	1695	96.3	0
36	1695	96.4	0
36	1695	96.5	0
36	1695	96.6	0
36	1695	96.7	0
36	1695	96.8	0
36	1695	96.9	0
36	1695	97	0
36	1695	97.1	0
36	1695	97.2	0
36	1695	97.3	0
36	1695	97.4	0
36	1695	97.5	0
36	1695	97.6	0
36	1695	97.7	0
36	1695	97.8	0
36	1695	97.9	0
36	1695	98	0
36	1695	98.1	0
36	1695	98.2	0
36	1695	98.3	0
36	1695	98.4	0
36	1695	98.5	0
36	1695	98.6	0
36	1695	98.7	0
36	1695	98.8	0
36	1695	98.9	0
36	1695	99	0
36	1695	99.1	0
36	1695	99.2	0
36	1695	99.3	0
36	1695	99.4	0
36	1695	99.5	0
36	1695	99.6	0
36	1695	99.7	0
36	1695	99.8	0
36	1695	99.9	0
36	1695	100	0
36	1695	100.1	0
36	1695	100.2	0
36	1695	100.3	0
36	1695	100.4	0
36	1695	100.5	0
36	1695	100.6	0
36	1695	100.7	0
36	1695	100.8	0
36	1695	100.9	0
36	1695	101	0
36	1695	101.1	0
36	1695	101.2	0
36	1695	101.3	0
36	1695	101.4	0
36	1695	101.5	0
36	1695	101.6	0
36	1695	101.7	0
36	1695	101.8	0
36	1695	101.9	0
36	1695	102	0
36	1695	102.1	0
36	1695	102.2	0
36	1695	102.3	0
36	1695	102.4	0
36	1695	102.5	0
36	1695	102.6	0
36	1695	102.7	0
36	1695	102.8	0
36	1695	102.9	0
36	1695	103	0
36	1695	103.1	0
36	1695	103.2	0
36	1695	103.3	0
36	1695	103.4	0
36	1695	103.5	0
36	1695	103.6	0
36	1695	103.7	0
36	1695	103.8	0
36	1695	103.9	0
36	1695	104	0
36	1695	104.1	0
36	1695	104.2	0
36	1695	104.3	0
36	1695	104.4	0
36	1695	104.5	0
36	1695	104.6	0
36	1695	104.7	0
36	1695	104.8	0
36	1695	104.9	0
36	1695	105	0
36	1695	105.1	0
36	1695	105.2	0
36	1695	105.3	0
36	1695	105.4	0
36	1695	105.5	0
36	1695	105.6	0
36	1695	105.7	0
36	1695	105.8	0
36	1695	105.9	0
36	1695	106	0
36	1695	106.1	0
36	1695	106.2	0
36	1695	106.3	0
36	1695	106.4	0
36	1695	106.5	0
36	1695	106.6	0
36	1695	106.7	0
36	1695	106.8	0
36	1695	106.9	0
36	1695	107	0
36	1695	107.1	0
36	1695	107.2	0
36	1695	107.3	0
36	1695	107.4	0
36	1695	107.5	0
36	1695	107.6	0
36	1695	107.7	0
36	1695	107.8	0
36	1695	107.9	0
36	1695	108	0
36	1695	108.1	0
36	1695	108.2	0
36	1695	108.3	0
36	1695	108.4	0
36	1695	108.5	0
36	1695	108.6	0
36	1695	108.7	0
36	1695	108.8	0
36	1695	108.9	0
36	1695	109	0
36	1695	109.1	0
36	1695	109.2	0
36	1695	109.3	0
36	1695	109.4	0
36	1695	109.5	0
36	1695	109.6	0
36	1695	109.7	0
36	1695	109.8	0
36	1695	109.9	0
36	1695	110	0
36	1695	110.1	0
36	1695	110.2	0
36	1695	110.3	0
36	1695	110.4	0
36	1695	110.5	0
36	1695	110.6	0
36	1695	110.7	0
36	1695	110.8	0
36	1695	110.9	0
36	1695	111	0
36	1695	111.1	0
36	1695	111.2	0
36	1695	111.3	0
36	1695	111.4	0
36	1695	111.5	0
36	1695	111.6	0
36	1695	111.7	0
36	1695	111.8	0
36	1695	111.9	0
36	1695	112	0
36	1695	112.1	0
36	1695	112.2	0
36	1695	112.3	0
36	1695	112.4	0
36	1695	112.5	0
36	1695	112.6	0
36	1695	112.7	0
36	1695	112.8	0
36	1695	112.9	0
36	1695	113	0
36	1695	113.1	0
36	1695	113.2	0
36	1695	113.3	0
36	1695	113.4	0
36	1695	113.5	0
36	1695	113.6	0
36	1695	113.7	0
36	1695	113.8	0
36	1695	113.9	0
36	1695	114	0
36	1695	114.1	0
36	1695	114.2	0
36	1695	114.3	0
36	1695	114.4	0
36	1695	114.5	0
36	1695	114.6	0
36	1695	114.7	0
36	1695	114.8	0
36	1695	114.9	0
36	1695	115	0
36	1695	115.1	0
36	1695	115.2	0
36	1695	115.3	0
36	1695	115.4	0
36	1695	115.5	0
36	1695	115.6	0
36	1695	115.7	0
36	1695	115.8	0
36	1695	115.9	0
36	1695	116	0
36	1695	116.1	0
36	1695	116.2	0
36	1695	116.3	0
36	1695	116.4	0
36	1695	116.5	0
36	1695	116.6	0
36	1695	116.7	0
36	1695	116.8	0
36	1695	116.9	0
36	1695	117	0
36	1695	117.1	0
36	1695	117.2	0
36	1695	117.3	0
36	1695	117.4	0
36	1695	117.5	0
36	1695	117.6	0
36	1695	117.7	0
36	1695	117.8	0
36	1695	117.9	0
36	1695	118	0
36	1695	118.1	0
36	1695	118.2	0
36	1695	118.3	0
36	1695	118.4	0
36	1695	118.5	0
36	1695	118.6	0
36	1695	118.7	0
36	1695	118.8	0
36	1695	118.9	0
36	1695	119	0
36	1695	119.1	0
36	1695	119.2	0
36	1695	119.3	0
36	1695	119.4	0
36	1695	119.5	0
36	1695	119.6	0
36	1695	119.7	0
36	1695	119.8	0
36	1695	119.9	0
36	1695	120	0
36	1695	120.1	0
36	1695	120.2	0
36	1695	120.3	0
36	1695	120.4	0
36	1695	120.5	0
36	1695	120.6	0
36	1695	120.7	0
36	1695	120.8	0
36	1695	120.9	0
36	1695	121	0
36	1695	121.1	0
36	1695	121.2	0
36	1695	121.3	0
36	1695	121.4	0
36	1695	121.5	0
36	1695	121.6	0
36	1695	121.7	0
36	1695	121.8	0
36	1695	121.9	0
36	1695	122	0
36	1695	122.1	0
36	1695	122.2	0
36	1695	122.3	0
36	1695	122.4	0
36	1695	122.5	0
36	1695	122.6	0
36	1695	122.7	0
36	1695	122.8	0
36	1695	122.9	0
36	1695	123	0
36	1695	123.1	0
36	1695	123.2	0
36	1695	123.3	0
36	1695	123.4	0
36	1695	123.5	0
36	1695	123.6	0
36	1695	123.7	0
36	1695	123.8	0
36	1695	123.9	0
36	1695	124	0
36	1695	124.1	0
36	1695	124.2	0
36	1695	124.3	0
36	1695	124.4	0
36	1695	124.5	0
36	1695	124.6	0
36	1695	124.7	0
36	1695	124.8	0
36	1695	124.9	0
36	1695	125	0
36	1695	125.1	0
36	1695	125.2	0
36	1695	125.3	0
36	1695	125.4	0
36	1695	125.5	0
36	1695	125.6	0
36	1695	125.7	0
36	1695	125.8	0
36	1695	125.9	0
36	1695	126	0
36	1695	126.1	0
36	1695	126.2	0
36	1695	126.3	0
36	1695	126.4	0
36	1695	126.5	0
36	1695	126.6	0
36	1695	126.7	0
36	1695	126.8	0
36	1695	126.9	0
36	1695	127	0
36	1695	127.1	0
36	1695	127.2	0
36	1695	127.3	0
36	1695	127.4	0
36	1695	127.5	0
36	1695	127.6	0
36	1695	127.7	0
36	1695	127.8	0
36	1695	127.9	0
36	1695	128	0
36	1695	128.1	0
36	1695	128.2	0
36	1695	128.3	0
36	1695	128.4	0
36	1695	128.5	0
36	1695	128.6	0
36	1695	128.7	0
36	1695	128.8	0
36	1695	128.9	0
36	1695	129	0
36	1695	129.1	0
36	1695	129.2	0
36	1695	129.3	0
36	1695	129.4	0
36	1695	129.5	0
36	1695	129.6	0
36	1695	129.7	0
36	1695	129.8	0
36	1695	129.9	0
36	1695	130	0
36	1695	130.1	0
36	1695	130.2	0
36	1695	130.3	0
36	1695	130.4	0
36	1695	130.5	0
36	1695	130.6	0
36	1695	130.7	0
36	1695	130.8	0
36	1695	130.9	0
36	1695	131	0
36	1695	131.1	0
36	1695	131.2	0
36	1695	131.3	0
36	1695	131.4	0
36	1695	131.5	0
36	1695	131.6	0
36	1695	131.7	0
36	1695	131.8	0
36	1695	131.9	0
36	1695	132	0
36	1695	132.1	0
36	1695	132.2	0
36	1695	132.3	0
36	1695	132.4	0
36	1695	132.5	0
36	1695	132.6	0
36	1695	132.7	0
36	1695	132.8	0
36	1695	132.9	0
36	1695	133	0
36	1695	133.1	0
36	1695	133.2	0
36	1695	133.3	0
36	1695	133.4	0
36	1695	133.5	0
36	1695	133.6	0
36	1695	133.7	0
36	1695	133.8	0
36	1695	133.9	0
36	1695	134	0
36	1695	134.1	0
36	1695	134.2	0
36	1695	134.3	0
36	1695	134.4	0
36	1695	134.5	0
36	1695	134.6	0
36	1695	134.7	0
36	1695	134.8	0
36	1695	134.9	0
36	1695	135	0
36	1695	135.1	0
36	1695	135.2	0
36	1695	135.3	0
36	1695	135.4	0
36	1695	135.5	0
36	1695	135.6	0
36	1695	135.7	0
36	1695	135.8	0
36	1695	135.9	0
36	1695	136	0
36	1695	136.1	0
36	1695	136.2	0
36	1695	136.3	0
36	1695	136.4	0
36	1695	136.5	0
36	1695	136.6	0
36	1695	136.7	0
36	1695	136.8	0
36	1695	136.9	0
36	1695	137	0
36	1695	137.1	0
36	1695	137.2	0
36	1695	137.3	0
36	1695	137.4	0
36	1695	137.5	0
36	1695	137.6	0
36	1695	137.7	0
36	1695	137.8	0
36	1695	137.9	0
36	1695	138	0
36	1695	138.1	0
36	1695	138.2	0
36	1695	138.3	0
36	1695	138.4	0
36	1695	138.5	0
36	1695	138.6	0
36	1695	138.7	0
36	1695	138.8	0
36	1695	138.9	0
36	1695	139	0
36	1695	139.1	0
36	1695	139.2	0
36	1695	139.3	0
36	1695	139.4	0
36	1695	139.5	0
36	1695	139.6	0
36	1695	139.7	0
36	1695	139.8	0
36	1695	139.9	0
36	1695	140	0
36	1695	140.1	0
36	1695	140.2	0
36	1695	140.3	0
36	1695	140.4	0
36	1695	140.5	0
36	1695	140.6	0
36	1695	140.7	0
36	1695	140.8	0
36	1695	140.9	0
36	1695	141	0
36	1695	141.1	0
36	1695	141.2	0
36	1695	141.3	0
36	1695	141.4	0
36	1695	141.5	0
36	1695	141.6	0
36	1695	141.7	0
36	1695	141.8	0
36	1695	141.9	0
36	1695	142	0
36	1695	142.1	0
36	1695	142.2	0
36	1695	142.3	0
36	1695	142.4	0
36	1695	142.5	0
36	1695	142.6	0
36	1695	142.7	0
36	1695	142.8	0
36	1695	142.9	0
36	1695	143	0
36	1695	143.1	0
36	1695	143.2	0
36	1695	143.3	0
36	1695	143.4	0
36	1695	143.5	0
36	1695	143.6	0
36	1695	143.7	0
36	1695	143.8	0
36	1695	143.9	0
36	1695	144	0
36	1695	144.1	0
36	1695	144.2	0
36	1695	144.3	0
36	1695	144.4	0
36	1695	144.5	0
36	1695	144.6	0
36	1695	144.7	0
36	1695	144.8	0
36	1695	144.9	0
36	1695	145	0
36	1695	145.1	0
36	1695	145.2	0
36	1695	145.3	0
36	1695	145.4	0
36	1695	145.5	0
36	1695	145.6	0
36	1695	145.7	0
36	1695	145.8	0
36	1695	145.9	0
36	1695	146	0
36	1695	146.1	0
36	1695	146.2	0
36	1695	146.3	0
36	1695	146.4	0
36	1695	146.5	0
36	1695	146.6	0
36	1695	146.7	0
36	1695	146.8	0
36	1695	146.9	0
36	1695	147	0
36	1695	147.1	0
36	1695	147.2	0
36	1695	147.3	0
36	1695	147.4	0
36	1695	147.5	0
36	1695	147.6	0
36	1695	147.7	0
36	1695	147.8	0
36	1695	147.9	0
36	1695	148	0
36	1695	148.1	0
36	1695	148.2	0
36	1695	148.3	0
36	1695	148.4	0
36	1695	148.5	0
36	1695	148.6	0
36	1695	148.7	0
36	1695	148.8	0
36	1695	148.9	0
36	1695	149	0
36	1695	149.1	0
36	1695	149.2	0
36	1695	149.3	0
36	1695	149.4	0
36	1695	149.5	0
36	1695	149.6	0
36	1695	149.7	0
36	1695	149.8	0
36	1695	149.9	0
36	1695	150	0
36	1695	150.1	0
36	1695	150.2	0
36	1695	150.3	0
36	1695	150.4	0
36	1695	150.5	0
36	1695	150.6	0
36	1695	150.7	0
36	1695	150.8	0
36	1695	150.9	0
36	1695	151	0
36	1695	151.1	0
36	1695	151.2	0
36	1695	151.3	0
36	1695	151.4	0
36	1695	151.5	0
36	1695	151.6	0
36	1695	151.7	0
36	1695	151.8	0
36	1695	151.9	0
36	1695	152	0
36	1695	152.1	0
36	1695	152.2	0
36	1695	152.3	0
36	1695	152.4	0
36	1695	152.5	0
36	1695	152.6	0
36	1695	152.7	0
36	1695	152.8	0
36	1695	152.9	0
36	1695	153	0
36	1695	153.1	0
36	1695	153.2	0
36	1695	153.3	0
36	1695	153.4	0
36	1695	153.5	0
36	1695	153.6	0
36	1695	153.7	0
36	1695	153.8	0
36	1695	153.9	0
36	1695	154	0
36	1695	154.1	0
36	1695	154.2	0
36	1695	154.3	0
36	1695	154.4	0
36	1695	154.5	0
36	1695	154.6	0
36	1695	154.7	0
36	1695	154.8	0
36	1695	154.9	0
36	1695	155	0
36	1695	155.1	0
35	738	71	100
35	746	71	100
35	829	71.00065070249	100
24	729	71	100
24	738	71	100
vector 108 Scenario.node[1].app[0] throughput:vector ETV
attr source throughput(packetReceived)
attr title "throughput, vector"
attr unit bps
15	31	2.1	15
14	31	2.1	1
12	31	2.1	0
12	31	2.1	0
12	31	2.1	2
13	31	2.1	3
108	1725	0.1	0
108	1725	0.2	0
108	1725	0.3	0
108	1725	0.4	0
108	1725	0.5	0
108	1725	0.6	0
108	1725	0.7	0
108	1725	0.8	0
108	1725	0.9	0
108	1725	1	0
108	1725	1.1	0
108	1725	1.2	0
108	1725	1.3	0
108	1725	1.4	0
108	1725	1.5	0
108	1725	1.6	0
108	1725	1.7	0
108	1725	1.8	0
108	1725	1.9	0
108	1725	2	0
108	1725	2.1	0
108	1725	2.2	0
108	1725	2.3	0
108	1725	2.4	0
108	1725	2.5	0
108	1725	2.6	0
108	1725	2.7	0
108	1725	2.8	0
108	1725	2.9	0
108	1725	3	0
108	1725	3.1	0
108	1725	3.2	0
108	1725	3.3	0
108	1725	3.4	0
108	1725	3.5	0
108	1725	3.6	0
108	1725	3.7	0
108	1725	3.8	0
108	1725	3.9	0
108	1725	4	0
108	1725	4.1	0
108	1725	4.2	0
108	1725	4.3	0
108	1725	4.4	0
108	1725	4.5	0
108	1725	4.6	0
108	1725	4.7	0
108	1725	4.8	0
108	1725	4.9	0
108	1725	5	0
108	1725	5.1	0
108	1725	5.2	0
108	1725	5.3	0
108	1725	5.4	0
108	1725	5.5	0
108	1725	5.6	0
108	1725	5.7	0
108	1725	5.8	0
108	1725	5.9	0
108	1725	6	0
108	1725	6.1	0
108	1725	6.2	0
108	1725	6.3	0
108	1725	6.4	0
108	1725	6.5	0
108	1725	6.6	0
108	1725	6.7	0
108	1725	6.8	0
108	1725	6.9	0
108	1725	7	0
108	1725	7.1	0
108	1725	7.2	0
108	1725	7.3	0
108	1725	7.4	0
108	1725	7.5	0
108	1725	7.6	0
108	1725	7.7	0
108	1725	7.8	0
108	1725	7.9	0
108	1725	8	0
108	1725	8.1	0
108	1725	8.2	0
108	1725	8.3	0
108	1725	8.4	0
108	1725	8.5	0
108	1725	8.6	0
108	1725	8.7	0
108	1725	8.8	0
108	1725	8.9	0
108	1725	9	0
108	1725	9.1	0
108	1725	9.2	0
108	1725	9.3	0
108	1725	9.4	0
108	1725	9.5	0
108	1725	9.6	0
108	1725	9.7	0
108	1725	9.8	0
108	1725	9.9	0
108	1725	10	0
108	1725	10.1	0
108	1725	10.2	0
108	1725	10.3	0
108	1725	10.4	0
108	1725	10.5	0
108	1725	10.6	0
108	1725	10.7	0
108	1725	10.8	0
108	1725	10.9	0
108	1725	11	0
108	1725	11.1	0
108	1725	11.2	0
108	1725	11.3	0
108	1725	11.4	0
108	1725	11.5	0
108	1725	11.6	0
108	1725	11.7	0
108	1725	11.8	0
108	1725	11.9	0
108	1725	12	0
108	1725	12.1	0
108	1725	12.2	0
108	1725	12.3	0
108	1725	12.4	0
108	1725	12.5	0
108	1725	12.6	0
108	1725	12.7	0
108	1725	12.8	0
108	1725	12.9	0
108	1725	13	0
108	1725	13.1	0
108	1725	13.2	0
108	1725	13.3	0
108	1725	13.4	0
108	1725	13.5	0
108	1725	13.6	0
108	1725	13.7	0
108	1725	13.8	0
108	1725	13.9	0
108	1725	14	0
108	1725	14.1	0
108	1725	14.2	0
108	1725	14.3	0
108	1725	14.4	0
108	1725	14.5	0
108	1725	14.6	0
108	1725	14.7	0
108	1725	14.8	0
108	1725	14.9	0
108	1725	15	0
108	1725	15.1	0
108	1725	15.2	0
108	1725	15.3	0
108	1725	15.4	0
108	1725	15.5	0
108	1725	15.6	0
108	1725	15.7	0
108	1725	15.8	0
108	1725	15.9	0
108	1725	16	0
108	1725	16.1	0
108	1725	16.2	0
108	1725	16.3	0
108	1725	16.4	0
108	1725	16.5	0
108	1725	16.6	0
108	1725	16.7	0
108	1725	16.8	0
108	1725	16.9	0
108	1725	17	0
108	1725	17.1	0
108	1725	17.2	0
108	1725	17.3	0
108	1725	17.4	0
108	1725	17.5	0
108	1725	17.6	0
108	1725	17.7	0
108	1725	17.8	0
108	1725	17.9	0
108	1725	18	0
108	1725	18.1	0
108	1725	18.2	0
108	1725	18.3	0
108	1725	18.4	0
108	1725	18.5	0
108	1725	18.6	0
108	1725	18.7	0
108	1725	18.8	0
108	1725	18.9	0
108	1725	19	0
108	1725	19.1	0
108	1725	19.2	0
108	1725	19.3	0
108	1725	19.4	0
108	1725	19.5	0
108	1725	19.6	0
108	1725	19.7	0
108	1725	19.8	0
108	1725	19.9	0
108	1725	20	0
108	1725	20.1	0
108	1725	20.2	0
108	1725	20.3	0
108	1725	20.4	0
108	1725	20.5	0
108	1725	20.6	0
108	1725	20.7	0
108	1725	20.8	0
108	1725	20.9	0
108	1725	21	0
108	1725	21.1	0
108	1725	21.2	0
108	1725	21.3	0
108	1725	21.4	0
108	1725	21.5	0
108	1725	21.6	0
108	1725	21.7	0
108	1725	21.8	0
108	1725	21.9	0
108	1725	22	0
108	1725	22.1	0
108	1725	22.2	0
108	1725	22.3	0
108	1725	22.4	0
108	1725	22.5	0
108	1725	22.6	0
108	1725	22.7	0
108	1725	22.8	0
108	1725	22.9	0
108	1725	23	0
108	1725	23.1	0
108	1725	23.2	0
108	1725	23.3	0
108	1725	23.4	0
108	1725	23.5	0
108	1725	23.6	0
108	1725	23.7	0
108	1725	23.8	0
108	1725	23.9	0
108	1725	24	0
108	1725	24.1	0
108	1725	24.2	0
108	1725	24.3	0
108	1725	24.4	0
108	1725	24.5	0
108	1725	24.6	0
108	1725	24.7	0
108	1725	24.8	0
108	1725	24.9	0
108	1725	25	0
108	1725	25.1	0
108	1725	25.2	0
108	1725	25.3	0
108	1725	25.4	0
108	1725	25.5	0
108	1725	25.6	0
108	1725	25.7	0
108	1725	25.8	0
108	1725	25.9	0
108	1725	26	0
108	1725	26.1	0
108	1725	26.2	0
108	1725	26.3	0
108	1725	26.4	0
108	1725	26.5	0
108	1725	26.6	0
108	1725	26.7	0
108	1725	26.8	0
108	1725	26.9	0
108	1725	27	0
108	1725	27.1	0
108	1725	27.2	0
108	1725	27.3	0
108	1725	27.4	0
108	1725	27.5	0
108	1725	27.6	0
108	1725	27.7	0
108	1725	27.8	0
108	1725	27.9	0
108	1725	28	0
108	1725	28.1	0
108	1725	28.2	0
108	1725	28.3	0
108	1725	28.4	0
108	1725	28.5	0
108	1725	28.6	0
108	1725	28.7	0
108	1725	28.8	0
108	1725	28.9	0
108	1725	29	0
108	1725	29.1	0
108	1725	29.2	0
108	1725	29.3	0
108	1725	29.4	0
108	1725	29.5	0
108	1725	29.6	0
108	1725	29.7	0
108	1725	29.8	0
108	1725	29.9	0
108	1725	30	0
108	1725	30.1	0
108	1725	30.2	0
108	1725	30.3	0
108	1725	30.4	0
108	1725	30.5	0
108	1725	30.6	0
108	1725	30.7	0
108	1725	30.8	0
108	1725	30.9	0
108	1725	31	0
108	1725	31.1	0
108	1725	31.2	0
108	1725	31.3	0
108	1725	31.4	0
108	1725	31.5	0
108	1725	31.6	0
108	1725	31.7	0
108	1725	31.8	0
108	1725	31.9	0
108	1725	32	0
108	1725	32.1	0
108	1725	32.2	0
108	1725	32.3	0
108	1725	32.4	0
108	1725	32.5	0
108	1725	32.6	0
108	1725	32.7	0
108	1725	32.8	0
108	1725	32.9	0
108	1725	33	0
108	1725	33.1	0
108	1725	33.2	0
108	1725	33.3	0
108	1725	33.4	0
108	1725	33.5	0
108	1725	33.6	0
108	1725	33.7	0
108	1725	33.8	0
108	1725	33.9	0
108	1725	34	0
108	1725	34.1	0
108	1725	34.2	0
108	1725	34.3	0
108	1725	34.4	0
108	1725	34.5	0
108	1725	34.6	0
108	1725	34.7	0
108	1725	34.8	0
108	1725	34.9	0
108	1725	35	0
108	1725	35.1	0
108	1725	35.2	0
108	1725	35.3	0
108	1725	35.4	0
108	1725	35.5	0
108	1725	35.6	0
108	1725	35.7	0
108	1725	35.8	0
108	1725	35.9	0
108	1725	36	0
108	1725	36.1	0
108	1725	36.2	0
108	1725	36.3	0
108	1725	36.4	0
108	1725	36.5	0
108	1725	36.6	0
108	1725	36.7	0
108	1725	36.8	0
108	1725	36.9	0
108	1725	37	0
108	1725	37.1	0
108	1725	37.2	0
108	1725	37.3	0
108	1725	37.4	0
108	1725	37.5	0
108	1725	37.6	0
108	1725	37.7	0
108	1725	37.8	0
108	1725	37.9	0
108	1725	38	0
108	1725	38.1	0
108	1725	38.2	0
108	1725	38.3	0
108	1725	38.4	0
108	1725	38.5	0
108	1725	38.6	0
108	1725	38.7	0
108	1725	38.8	0
108	1725	38.9	0
108	1725	39	0
108	1725	39.1	0
108	1725	39.2	0
108	1725	39.3	0
108	1725	39.4	0
108	1725	39.5	0
108	1725	39.6	0
108	1725	39.7	0
108	1725	39.8	0
108	1725	39.9	0
108	1725	40	0
108	1725	40.1	0
108	1725	40.2	0
108	1725	40.3	0
108	1725	40.4	0
108	1725	40.5	0
108	1725	40.6	0
108	1725	40.7	0
108	1725	40.8	0
108	1725	40.9	0
108	1725	41	0
108	1725	41.1	0
108	1725	41.2	0
108	1725	41.3	0
108	1725	41.4	0
108	1725	41.5	0
108	1725	41.6	0
108	1725	41.7	0
108	1725	41.8	0
108	1725	41.9	0
108	1725	42	0
108	1725	42.1	0
108	1725	42.2	0
108	1725	42.3	0
108	1725	42.4	0
108	1725	42.5	0
108	1725	42.6	0
108	1725	42.7	0
108	1725	42.8	0
108	1725	42.9	0
108	1725	43	0
108	1725	43.1	0
108	1725	43.2	0
108	1725	43.3	0
108	1725	43.4	0
108	1725	43.5	0
108	1725	43.6	0
108	1725	43.7	0
108	1725	43.8	0
108	1725	43.9	0
108	1725	44	0
108	1725	44.1	0
108	1725	44.2	0
108	1725	44.3	0
108	1725	44.4	0
108	1725	44.5	0
108	1725	44.6	0
108	1725	44.7	0
108	1725	44.8	0
108	1725	44.9	0
108	1725	45	0
108	1725	45.1	0
108	1725	45.2	0
108	1725	45.3	0
108	1725	45.4	0
108	1725	45.5	0
108	1725	45.6	0
108	1725	45.7	0
108	1725	45.8	0
108	1725	45.9	0
108	1725	46	0
108	1725	46.1	0
108	1725	46.2	0
108	1725	46.3	0
108	1725	46.4	0
108	1725	46.5	0
108	1725	46.6	0
108	1725	46.7	0
108	1725	46.8	0
108	1725	46.9	0
108	1725	47	0
108	1725	47.1	0
108	1725	47.2	0
108	1725	47.3	0
108	1725	47.4	0
108	1725	47.5	0
108	1725	47.6	0
108	1725	47.7	0
108	1725	47.8	0
108	1725	47.9	0
108	1725	48	0
108	1725	48.1	0
108	1725	48.2	0
108	1725	48.3	0
108	1725	48.4	0
108	1725	48.5	0
108	1725	48.6	0
108	1725	48.7	0
108	1725	48.8	0
108	1725	48.9	0
108	1725	49	0
108	1725	49.1	0
108	1725	49.2	0
108	1725	49.3	0
108	1725	49.4	0
108	1725	49.5	0
108	1725	49.6	0
108	1725	49.7	0
108	1725	49.8	0
108	1725	49.9	0
108	1725	50	0
108	1725	50.1	0
108	1725	50.2	0
108	1725	50.3	0
108	1725	50.4	0
108	1725	50.5	0
108	1725	50.6	0
108	1725	50.7	0
108	1725	50.8	0
108	1725	50.9	0
108	1725	51	0
108	1725	51.1	0
108	1725	51.2	0
108	1725	51.3	0
108	1725	51.4	0
108	1725	51.5	0
108	1725	51.6	0
108	1725	51.7	0
108	1725	51.8	0
108	1725	51.9	0
108	1725	52	0
108	1725	52.1	0
108	1725	52.2	0
108	1725	52.3	0
108	1725	52.4	0
108	1725	52.5	0
108	1725	52.6	0
108	1725	52.7	0
108	1725	52.8	0
108	1725	52.9	0
108	1725	53	0
108	1725	53.1	0
108	1725	53.2	0
108	1725	53.3	0
108	1725	53.4	0
108	1725	53.5	0
108	1725	53.6	0
108	1725	53.7	0
108	1725	53.8	0
108	1725	53.9	0
108	1725	54	0
108	1725	54.1	0
108	1725	54.2	0
108	1725	54.3	0
108	1725	54.4	0
108	1725	54.5	0
108	1725	54.6	0
108	1725	54.7	0
108	1725	54.8	0
108	1725	54.9	0
108	1725	55	0
108	1725	55.1	0
108	1725	55.2	0
108	1725	55.3	0
108	1725	55.4	0
108	1725	55.5	0
108	1725	55.6	0
108	1725	55.7	0
108	1725	55.8	0
108	1725	55.9	0
108	1725	56	0
108	1725	56.1	0
108	1725	56.2	0
108	1725	56.3	0
108	1725	56.4	0
108	1725	56.5	0
108	1725	56.6	0
108	1725	56.7	0
108	1725	56.8	0
108	1725	56.9	0
108	1725	57	0
108	1725	57.1	0
108	1725	57.2	0
108	1725	57.3	0
108	1725	57.4	0
108	1725	57.5	0
108	1725	57.6	0
108	1725	57.7	0
108	1725	57.8	0
108	1725	57.9	0
108	1725	58	0
108	1725	58.1	0
108	1725	58.2	0
108	1725	58.3	0
108	1725	58.4	0
108	1725	58.5	0
108	1725	58.6	0
108	1725	58.7	0
108	1725	58.8	0
108	1725	58.9	0
108	1725	59	0
108	1725	59.1	0
108	1725	59.2	0
108	1725	59.3	0
108	1725	59.4	0
108	1725	59.5	0
108	1725	59.6	0
108	1725	59.7	0
108	1725	59.8	0
108	1725	59.9	0
108	1725	60	0
108	1725	60.1	0
108	1725	60.2	0
108	1725	60.3	0
108	1725	60.4	0
108	1725	60.5	0
108	1725	60.6	0
108	1725	60.7	0
108	1725	60.8	0
108	1725	60.9	0
108	1725	61	0
108	1725	61.1	0
108	1725	61.2	0
108	1725	61.3	0
108	1725	61.4	0
108	1725	61.5	0
108	1725	61.6	0
108	1725	61.7	0
108	1725	61.8	0
108	1725	61.9	0
108	1725	62	0
108	1725	62.1	0
108	1725	62.2	0
108	1725	62.3	0
108	1725	62.4	0
108	1725	62.5	0
108	1725	62.6	0
108	1725	62.7	0
108	1725	62.8	0
108	1725	62.9	0
108	1725	63	0
108	1725	63.1	0
108	1725	63.2	0
108	1725	63.3	0
108	1725	63.4	0
108	1725	63.5	0
108	1725	63.6	0
108	1725	63.7	0
108	1725	63.8	0
108	1725	63.9	0
108	1725	64	0
108	1725	64.1	0
108	1725	64.2	0
108	1725	64.3	0
108	1725	64.4	0
108	1725	64.5	0
108	1725	64.6	0
108	1725	64.7	0
108	1725	64.8	0
108	1725	64.9	0
108	1725	65	0
[...]
112	2145	96.4	0
112	2145	96.5	0
112	2145	96.6	0
112	2145	96.7	0
112	2145	96.8	0
112	2145	96.9	0
112	2145	97	0
112	2145	97.1	0
112	2145	97.2	0
112	2145	97.3	0
112	2145	97.4	0
112	2145	97.5	0
112	2145	97.6	0
112	2145	97.7	0
112	2145	97.8	0
112	2145	97.9	0
112	2145	98	0
112	2145	98.1	0
112	2145	98.2	0
112	2145	98.3	0
112	2145	98.4	0
112	2145	98.5	0
112	2145	98.6	0
112	2145	98.7	0
112	2145	98.8	0
112	2145	98.9	0
112	2145	99	0
112	2145	99.1	0
112	2145	99.2	0
112	2145	99.3	0
112	2145	99.4	0
112	2145	99.5	0
112	2145	99.6	0
112	2145	99.7	0
112	2145	99.8	0
112	2145	99.9	0
112	2145	100	0
112	2145	100.1	0
112	2145	100.2	0
112	2145	100.3	0
112	2145	100.4	0
112	2145	100.5	0
112	2145	100.6	0
112	2145	100.7	0
112	2145	100.8	0
112	2145	100.9	0
112	2145	101	0
112	2145	101.1	0
112	2145	101.2	0
112	2145	101.3	0
112	2145	101.4	0
112	2145	101.5	0
112	2145	101.6	0
112	2145	101.7	0
112	2145	101.8	0
112	2145	101.9	0
112	2145	102	0
112	2145	102.1	0
112	2145	102.2	0
112	2145	102.3	0
112	2145	102.4	0
112	2145	102.5	0
112	2145	102.6	0
112	2145	102.7	0
112	2145	102.8	0
112	2145	102.9	0
112	2145	103	0
112	2145	103.1	0
112	2145	103.2	0
112	2145	103.3	0
112	2145	103.4	0
112	2145	103.5	0
112	2145	103.6	0
112	2145	103.7	0
112	2145	103.8	0
112	2145	103.9	0
112	2145	104	0
112	2145	104.1	0
112	2145	104.2	0
112	2145	104.3	0
112	2145	104.4	0
112	2145	104.5	0
112	2145	104.6	0
112	2145	104.7	0
112	2145	104.8	0
112	2145	104.9	0
112	2145	105	0
112	2145	105.1	0
112	2145	105.2	0
112	2145	105.3	0
112	2145	105.4	0
112	2145	105.5	0
112	2145	105.6	0
112	2145	105.7	0
112	2145	105.8	0
112	2145	105.9	0
112	2145	106	0
112	2145	106.1	0
112	2145	106.2	0
112	2145	106.3	0
112	2145	106.4	0
112	2145	106.5	0
112	2145	106.6	0
112	2145	106.7	0
112	2145	106.8	0
112	2145	106.9	0
112	2145	107	0
112	2145	107.1	0
112	2145	107.2	0
112	2145	107.3	0
112	2145	107.4	0
112	2145	107.5	0
112	2145	107.6	0
112	2145	107.7	0
112	2145	107.8	0
112	2145	107.9	0
112	2145	108	0
112	2145	108.1	0
112	2145	108.2	0
112	2145	108.3	0
112	2145	108.4	0
112	2145	108.5	0
112	2145	108.6	0
112	2145	108.7	0
112	2145	108.8	0
112	2145	108.9	0
112	2145	109	0
112	2145	109.1	0
112	2145	109.2	0
112	2145	109.3	0
112	2145	109.4	0
112	2145	109.5	0
112	2145	109.6	0
112	2145	109.7	0
112	2145	109.8	0
112	2145	109.9	0
112	2145	110	0
112	2145	110.1	0
112	2145	110.2	0
112	2145	110.3	0
112	2145	110.4	0
112	2145	110.5	0
112	2145	110.6	0
112	2145	110.7	0
112	2145	110.8	0
112	2145	110.9	0
112	2145	111	0
112	2145	111.1	0
112	2145	111.2	0
112	2145	111.3	0
112	2145	111.4	0
112	2145	111.5	0
112	2145	111.6	0
112	2145	111.7	0
112	2145	111.8	0
112	2145	111.9	0
112	2145	112	0
112	2145	112.1	0
112	2145	112.2	0
112	2145	112.3	0
112	2145	112.4	0
112	2145	112.5	0
112	2145	112.6	0
112	2145	112.7	0
112	2145	112.8	0
112	2145	112.9	0
112	2145	113	0
112	2145	113.1	0
112	2145	113.2	0
112	2145	113.3	0
112	2145	113.4	0
112	2145	113.5	0
112	2145	113.6	0
112	2145	113.7	0
112	2145	113.8	0
112	2145	113.9	0
112	2145	114	0
112	2145	114.1	0
112	2145	114.2	0
112	2145	114.3	0
112	2145	114.4	0
112	2145	114.5	0
112	2145	114.6	0
112	2145	114.7	0
112	2145	114.8	0
112	2145	114.9	0
112	2145	115	0
112	2145	115.1	0
112	2145	115.2	0
112	2145	115.3	0
112	2145	115.4	0
112	2145	115.5	0
112	2145	115.6	0
112	2145	115.7	0
112	2145	115.8	0
112	2145	115.9	0
112	2145	116	0
112	2145	116.1	0
112	2145	116.2	0
112	2145	116.3	0
112	2145	116.4	0
112	2145	116.5	0
112	2145	116.6	0
112	2145	116.7	0
112	2145	116.8	0
112	2145	116.9	0
112	2145	117	0
112	2145	117.1	0
112	2145	117.2	0
112	2145	117.3	0
112	2145	117.4	0
112	2145	117.5	0
112	2145	117.6	0
112	2145	117.7	0
112	2145	117.8	0
112	2145	117.9	0
112	2145	118	0
112	2145	118.1	0
112	2145	118.2	0
112	2145	118.3	0
112	2145	118.4	0
112	2145	118.5	0
112	2145	118.6	0
112	2145	118.7	0
112	2145	118.8	0
112	2145	118.9	0
112	2145	119	0
112	2145	119.1	0
112	2145	119.2	0
112	2145	119.3	0
112	2145	119.4	0
112	2145	119.5	0
112	2145	119.6	0
112	2145	119.7	0
112	2145	119.8	0
112	2145	119.9	0
112	2145	120	0
112	2145	120.1	0
112	2145	120.2	0
112	2145	120.3	0
112	2145	120.4	0
112	2145	120.5	0
112	2145	120.6	0
112	2145	120.7	0
112	2145	120.8	0
112	2145	120.9	0
112	2145	121	0
112	2145	121.1	0
112	2145	121.2	0
112	2145	121.3	0
112	2145	121.4	0
112	2145	121.5	0
112	2145	121.6	0
112	2145	121.7	0
112	2145	121.8	0
112	2145	121.9	0
112	2145	122	0
112	2145	122.1	0
112	2145	122.2	0
112	2145	122.3	0
112	2145	122.4	0
112	2145	122.5	0
112	2145	122.6	0
112	2145	122.7	0
112	2145	122.8	0
112	2145	122.9	0
112	2145	123	0
112	2145	123.1	0
112	2145	123.2	0
112	2145	123.3	0
112	2145	123.4	0
112	2145	123.5	0
112	2145	123.6	0
112	2145	123.7	0
112	2145	123.8	0
112	2145	123.9	0
112	2145	124	0
112	2145	124.1	0
112	2145	124.2	0
112	2145	124.3	0
112	2145	124.4	0
112	2145	124.5	0
112	2145	124.6	0
112	2145	124.7	0
112	2145	124.8	0
112	2145	124.9	0
112	2145	125	0
112	2145	125.1	0
112	2145	125.2	0
112	2145	125.3	0
112	2145	125.4	0
112	2145	125.5	0
112	2145	125.6	0
112	2145	125.7	0
112	2145	125.8	0
112	2145	125.9	0
112	2145	126	0
112	2145	126.1	0
112	2145	126.2	0
112	2145	126.3	0
112	2145	126.4	0
112	2145	126.5	0
112	2145	126.6	0
112	2145	126.7	0
112	2145	126.8	0
112	2145	126.9	0
112	2145	127	0
112	2145	127.1	0
112	2145	127.2	0
112	2145	127.3	0
112	2145	127.4	0
112	2145	127.5	0
112	2145	127.6	0
112	2145	127.7	0
112	2145	127.8	0
112	2145	127.9	0
112	2145	128	0
112	2145	128.1	0
112	2145	128.2	0
112	2145	128.3	0
112	2145	128.4	0
112	2145	128.5	0
112	2145	128.6	0
112	2145	128.7	0
112	2145	128.8	0
112	2145	128.9	0
112	2145	129	0
112	2145	129.1	0
112	2145	129.2	0
112	2145	129.3	0
112	2145	129.4	0
112	2145	129.5	0
112	2145	129.6	0
112	2145	129.7	0
112	2145	129.8	0
112	2145	129.9	0
112	2145	130	0
112	2145	130.1	0
112	2145	130.2	0
112	2145	130.3	0
112	2145	130.4	0
112	2145	130.5	0
112	2145	130.6	0
112	2145	130.7	0
112	2145	130.8	0
112	2145	130.9	0
112	2145	131	0
112	2145	131.1	0
112	2145	131.2	0
112	2145	131.3	0
112	2145	131.4	0
112	2145	131.5	0
112	2145	131.6	0
112	2145	131.7	0
112	2145	131.8	0
112	2145	131.9	0
112	2145	132	0
112	2145	132.1	0
112	2145	132.2	0
112	2145	132.3	0
112	2145	132.4	0
112	2145	132.5	0
112	2145	132.6	0
112	2145	132.7	0
112	2145	132.8	0
112	2145	132.9	0
112	2145	133	0
112	2145	133.1	0
112	2145	133.2	0
112	2145	133.3	0
112	2145	133.4	0
112	2145	133.5	0
112	2145	133.6	0
112	2145	133.7	0
112	2145	133.8	0
112	2145	133.9	0
112	2145	134	0
112	2145	134.1	0
112	2145	134.2	0
112	2145	134.3	0
112	2145	134.4	0
112	2145	134.5	0
112	2145	134.6	0
112	2145	134.7	0
112	2145	134.8	0
112	2145	134.9	0
112	2145	135	0
112	2145	135.1	0
112	2145	135.2	0
112	2145	135.3	0
112	2145	135.4	0
112	2145	135.5	0
112	2145	135.6	0
112	2145	135.7	0
112	2145	135.8	0
112	2145	135.9	0
112	2145	136	0
112	2145	136.1	0
112	2145	136.2	0
112	2145	136.3	0
112	2145	136.4	0
112	2145	136.5	0
112	2145	136.6	0
112	2145	136.7	0
112	2145	136.8	0
112	2145	136.9	0
112	2145	137	0
112	2145	137.1	0
112	2145	137.2	0
112	2145	137.3	0
112	2145	137.4	0
112	2145	137.5	0
112	2145	137.6	0
112	2145	137.7	0
112	2145	137.8	0
112	2145	137.9	0
112	2145	138	0
112	2145	138.1	0
112	2145	138.2	0
112	2145	138.3	0
112	2145	138.4	0
112	2145	138.5	0
112	2145	138.6	0
112	2145	138.7	0
112	2145	138.8	0
112	2145	138.9	0
112	2145	139	0
112	2145	139.1	0
112	2145	139.2	0
112	2145	139.3	0
112	2145	139.4	0
112	2145	139.5	0
112	2145	139.6	0
112	2145	139.7	0
112	2145	139.8	0
112	2145	139.9	0
112	2145	140	0
112	2145	140.1	0
112	2145	140.2	0
112	2145	140.3	0
112	2145	140.4	0
112	2145	140.5	0
112	2145	140.6	0
112	2145	140.7	0
112	2145	140.8	0
112	2145	140.9	0
112	2145	141	0
112	2145	141.1	0
112	2145	141.2	0
112	2145	141.3	0
112	2145	141.4	0
112	2145	141.5	0
112	2145	141.6	0
112	2145	141.7	0
112	2145	141.8	0
112	2145	141.9	0
112	2145	142	0
112	2145	142.1	0
112	2145	142.2	0
112	2145	142.3	0
112	2145	142.4	0
112	2145	142.5	0
112	2145	142.6	0
112	2145	142.7	0
112	2145	142.8	0
112	2145	142.9	0
112	2145	143	0
112	2145	143.1	0
112	2145	143.2	0
112	2145	143.3	0
112	2145	143.4	0
112	2145	143.5	0
112	2145	143.6	0
112	2145	143.7	0
112	2145	143.8	0
112	2145	143.9	0
112	2145	144	0
112	2145	144.1	0
112	2145	144.2	0
112	2145	144.3	0
112	2145	144.4	0
112	2145	144.5	0
112	2145	144.6	0
112	2145	144.7	0
112	2145	144.8	0
112	2145	144.9	0
112	2145	145	0
112	2145	145.1	0
112	2145	145.2	0
112	2145	145.3	0
112	2145	145.4	0
112	2145	145.5	0
112	2145	145.6	0
112	2145	145.7	0
112	2145	145.8	0
112	2145	145.9	0
112	2145	146	0
112	2145	146.1	0
112	2145	146.2	0
112	2145	146.3	0
112	2145	146.4	0
112	2145	146.5	0
112	2145	146.6	0
112	2145	146.7	0
112	2145	146.8	0
112	2145	146.9	0
112	2145	147	0
112	2145	147.1	0
112	2145	147.2	0
112	2145	147.3	0
112	2145	147.4	0
112	2145	147.5	0
112	2145	147.6	0
112	2145	147.7	0
112	2145	147.8	0
112	2145	147.9	0
112	2145	148	0
112	2145	148.1	0
112	2145	148.2	0
112	2145	148.3	0
112	2145	148.4	0
112	2145	148.5	0
112	2145	148.6	0
112	2145	148.7	0
112	2145	148.8	0
112	2145	148.9	0
112	2145	149	0
112	2145	149.1	0
112	2145	149.2	0
112	2145	149.3	0
112	2145	149.4	0
112	2145	149.5	0
112	2145	149.6	0
112	2145	149.7	0
112	2145	149.8	0
112	2145	149.9	0
112	2145	150	0
112	2145	150.1	0
112	2145	150.2	0
112	2145	150.3	0
112	2145	150.4	0
112	2145	150.5	0
112	2145	150.6	0
112	2145	150.7	0
112	2145	150.8	0
112	2145	150.9	0
112	2145	151	0
112	2145	151.1	0
112	2145	151.2	0
112	2145	151.3	0
112	2145	151.4	0
112	2145	151.5	0
112	2145	151.6	0
112	2145	151.7	0
112	2145	151.8	0
112	2145	151.9	0
112	2145	152	0
112	2145	152.1	0
112	2145	152.2	0
112	2145	152.3	0
112	2145	152.4	0
112	2145	152.5	0
112	2145	152.6	0
112	2145	152.7	0
112	2145	152.8	0
112	2145	152.9	0
112	2145	153	0
112	2145	153.1	0
112	2145	153.2	0
112	2145	153.3	0
112	2145	153.4	0
112	2145	153.5	0
112	2145	153.6	0
112	2145	153.7	0
112	2145	153.8	0
112	2145	153.9	0
112	2145	154	0
112	2145	154.1	0
112	2145	154.2	0
112	2145	154.3	0
112	2145	154.4	0
112	2145	154.5	0
112	2145	154.6	0
112	2145	154.7	0
112	2145	154.8	0
112	2145	154.9	0
112	2145	155	0
112	2145	155.1	0
112	2145	155.2	0
112	2145	155.3	0
112	2145	155.4	0
112	2145	155.5	0
112	2145	155.6	0
112	2145	155.7	0
112	2145	155.8	0
112	2145	155.9	0
112	2145	156	0
112	2145	156.1	0
112	2145	156.2	0
112	2145	156.3	0
112	2145	156.4	0
112	2145	156.5	0
112	2145	156.6	0
112	2145	156.7	0
112	2145	156.8	0
112	2145	156.9	0
112	2145	157	0
112	2145	157.1	0
112	2145	157.2	0
112	2145	157.3	0
112	2145	157.4	0
112	2145	157.5	0
112	2145	157.6	0
112	2145	157.7	0
112	2145	157.8	0
112	2145	157.9	0
112	2145	158	0
112	2145	158.1	0
112	2145	158.2	0
112	2145	158.3	0
112	2145	158.4	0
112	2145	158.5	0
112	2145	158.6	0
112	2145	158.7	0
112	2145	158.8	0
112	2145	158.9	0
112	2145	159	0
112	2145	159.1	0
112	2145	159.2	0
112	2145	159.3	0
112	2145	159.4	0
112	2145	159.5	0
112	2145	159.6	0
112	2145	159.7	0
112	2145	159.8	0
112	2145	159.9	0
112	2145	160	0
112	2145	160.1	0
112	2145	160.2	0
112	2145	160.3	0
112	2145	160.4	0
112	2145	160.5	0
112	2145	160.6	0
112	2145	160.7	0
112	2145	160.8	0
112	2145	160.9	0
112	2145	161	0
112	2145	161.1	0
112	2145	161.2	0
112	2145	161.3	0
112	2145	161.4	0
112	2145	161.5	0
112	2145	161.6	0
112	2145	161.7	0
112	2145	161.8	0
112	2145	161.9	0
112	2145	162	0
112	2145	162.1	0
112	2145	162.2	0
112	2145	162.3	0
112	2145	162.4	0
112	2145	162.5	0
112	2145	162.6	0
112	2145	162.7	0
112	2145	162.8	0
112	2145	162.9	0
112	2145	163	0
112	2145	163.1	0
112	2145	163.2	0
112	2145	163.3	0
112	2145	163.4	0
112	2145	163.5	0
112	2145	163.6	0
112	2145	163.7	0
112	2145	163.8	0
112	2145	163.9	0
112	2145	164	0
112	2145	164.1	0
112	2145	164.2	0
112	2145	164.3	0
112	2145	164.4	0
112	2145	164.5	0
112	2145	164.6	0
112	2145	164.7	0
112	2145	164.8	0
112	2145	164.9	0
112	2145	165	0
112	2145	165.1	0
112	2145	165.2	0
112	2145	165.3	0
112	2145	165.4	0
112	2145	165.5	0
112	2145	165.6	0
112	2145	165.7	0
112	2145	165.8	0
112	2145	165.9	0
112	2145	166	0
112	2145	166.1	0
112	2145	166.2	0
112	2145	166.3	0
112	2145	166.4	0
112	2145	166.5	0
112	2145	166.6	0
112	2145	166.7	0
112	2145	166.8	0
112	2145	166.9	0
112	2145	167	0
112	2145	167.1	0
112	2145	167.2	0
112	2145	167.3	0
112	2145	167.4	0
112	2145	167.5	0
112	2145	167.6	0
112	2145	167.7	0
112	2145	167.8	0
112	2145	167.9	0
112	2145	168	0
112	2145	168.1	0
112	2145	168.2	0
112	2145	168.3	0
112	2145	168.4	0
112	2145	168.5	0
112	2145	168.6	0
112	2145	168.7	0
112	2145	168.8	0
112	2145	168.9	0
112	2145	169	0
112	2145	169.1	0
112	2145	169.2	0
112	2145	169.3	0
112	2145	169.4	0
112	2145	169.5	0
112	2145	169.6	0
112	2145	169.7	0
112	2145	169.8	0
112	2145	169.9	0
112	2145	170	0
112	2145	170.1	0
112	2145	170.2	0
112	2145	170.3	0
112	2145	170.4	0
112	2145	170.5	0
112	2145	170.6	0
112	2145	170.7	0
112	2145	170.8	0
112	2145	170.9	0
112	2145	171	0
112	2145	171.1	0
112	2145	171.2	0
112	2145	171.3	0
112	2145	171.4	0
112	2145	171.5	0
112	2145	171.6	0
112	2145	171.7	0
112	2145	171.8	0
112	2145	171.9	0
112	2145	172	0
112	2145	172.1	0
112	2145	172.2	0
112	2145	172.3	0
112	2145	172.4	0
112	2145	172.5	0
112	2145	172.6	0
112	2145	172.7	0
112	2145	172.8	0
112	2145	172.9	0
112	2145	173	0
112	2145	173.1	0
112	2145	173.2	0
112	2145	173.3	0
112	2145	173.4	0
112	2145	173.5	0
112	2145	173.6	0
112	2145	173.7	0
112	2145	173.8	0
112	2145	173.9	0
112	2145	174	0
112	2145	174.1	0
112	2145	174.2	0
112	2145	174.3	0
112	2145	174.4	0
112	2145	174.5	0
112	2145	174.6	0
112	2145	174.7	0
112	2145	174.8	0
112	2145	174.9	0
112	2145	175	0
112	2145	175.1	0
112	2145	175.2	0
112	2145	175.3	0
112	2145	175.4	0
112	2145	175.5	0
112	2145	175.6	0
112	2145	175.7	0
112	2145	175.8	0
112	2145	175.9	0
112	2145	176	0
112	2145	176.1	0
112	2145	176.2	0
112	2145	176.3	0
112	2145	176.4	0
112	2145	176.5	0
112	2145	176.6	0
112	2145	176.7	0
112	2145	176.8	0
112	2145	176.9	0
112	2145	177	0
112	2145	177.1	0
112	2145	177.2	0
112	2145	177.3	0
112	2145	177.4	0
112	2145	177.5	0
112	2145	177.6	0
112	2145	177.7	0
112	2145	177.8	0
112	2145	177.9	0
112	2145	178	0
112	2145	178.1	0
112	2145	178.2	0
112	2145	178.3	0
112	2145	178.4	0
112	2145	178.5	0
112	2145	178.6	0
112	2145	178.7	0
112	2145	178.8	0
112	2145	178.9	0
112	2145	179	0
112	2145	179.1	0
112	2145	179.2	0
112	2145	179.3	0
112	2145	179.4	0
112	2145	179.5	0
112	2145	179.6	0
112	2145	179.7	0
112	2145	179.8	0
112	2145	179.9	0
112	2145	180	0
112	2145	180.1	0
112	2145	180.2	0
112	2145	180.3	0
112	2145	180.4	0
112	2145	180.5	0
112	2145	180.6	0
112	2145	180.7	0
112	2145	180.8	0
112	2145	180.9	0
112	2145	181	0
112	2145	181.1	0
112	2145	181.2	0
112	2145	181.3	0
112	2145	181.4	0
112	2145	181.5	0
112	2145	181.6	0
112	2145	181.7	0
112	2145	181.8	0
112	2145	181.9	0
112	2145	182	0
112	2145	182.1	0
112	2145	182.2	0
112	2145	182.3	0
112	2145	182.4	0
112	2145	182.5	0
112	2145	182.6	0
112	2145	182.7	0
112	2145	182.8	0
112	2145	182.9	0
112	2145	183	0
112	2145	183.1	0
112	2145	183.2	0
112	2145	183.3	0
112	2145	183.4	0
112	2145	183.5	0
112	2145	183.6	0
112	2145	183.7	0
112	2145	183.8	0
112	2145	183.9	0
112	2145	184	0
112	2145	184.1	0
112	2145	184.2	0
112	2145	184.3	0
112	2145	184.4	0
112	2145	184.5	0
112	2145	184.6	0
112	2145	184.7	0
112	2145	184.8	0
112	2145	184.9	0
112	2145	185	0
112	2145	185.1	0
112	2145	185.2	0
112	2145	185.3	0
112	2145	185.4	0
112	2145	185.5	0
112	2145	185.6	0
112	2145	185.7	0
112	2145	185.8	0
112	2145	185.9	0
112	2145	186	0
112	2145	186.1	0
112	2145	186.2	0
112	2145	186.3	0
112	2145	186.4	0
112	2145	186.5	0
112	2145	186.6	0
112	2145	186.7	0
112	2145	186.8	0
112	2145	186.9	0
112	2145	187	0
112	2145	187.1	0
112	2145	187.2	0
112	2145	187.3	0
112	2145	187.4	0
112	2145	187.5	0
112	2145	187.6	0
112	2145	187.7	0
112	2145	187.8	0
112	2145	187.9	0
112	2145	188	0
112	2145	188.1	0
112	2145	188.2	0
112	2145	188.3	0
112	2145	188.4	0
112	2145	188.5	0
112	2145	188.6	0
112	2145	188.7	0
112	2145	188.8	0
112	2145	188.9	0
112	2145	189	0
112	2145	189.1	0
112	2145	189.2	0
112	2145	189.3	0
112	2145	189.4	0
112	2145	189.5	0
112	2145	189.6	0
112	2145	189.7	0
112	2145	189.8	0
112	2145	189.9	0
112	2145	190	0
112	2145	190.1	0
112	2145	190.2	0
112	2145	190.3	0
112	2145	190.4	0
112	2145	190.5	0
112	2145	190.6	0
112	2145	190.7	0
112	2145	190.8	0
112	2145	190.9	0
112	2145	191	0
112	2145	191.1	0
112	2145	191.2	0
112	2145	191.3	0
112	2145	191.4	0
112	2145	191.5	0
112	2145	191.6	0
112	2145	191.7	0
112	2145	191.8	0
112	2145	191.9	0
112	2145	192	0
112	2145	192.1	0
112	2145	192.2	0
112	2145	192.3	0
112	2145	192.4	0
112	2145	192.5	0
112	2145	192.6	0
112	2145	192.7	0
112	2145	192.8	0
112	2145	192.9	0
112	2145	193	0
112	2145	193.1	0
112	2145	193.2	0
112	2145	193.3	0
112	2145	193.4	0
112	2145	193.5	0
112	2145	193.6	0
112	2145	193.7	0
112	2145	193.8	0
112	2145	193.9	0
112	2145	194	0
112	2145	194.1	0
112	2145	194.2	0
112	2145	194.3	0
112	2145	194.4	0
112	2145	194.5	0
112	2145	194.6	0
112	2145	194.7	0
112	2145	194.8	0
112	2145	194.9	0
112	2145	195	0
112	2145	195.1	0
112	2145	195.2	0
112	2145	195.3	0
112	2145	195.4	0
112	2145	195.5	0
112	2145	195.6	0
112	2145	195.7	0
112	2145	195.8	0
112	2145	195.9	0
112	2145	196	0
112	2145	196.1	0
112	2145	196.2	0
112	2145	196.3	0
112	2145	196.4	0
112	2145	196.5	0
112	2145	196.6	0
112	2145	196.7	0
112	2145	196.8	0
112	2145	196.9	0
112	2145	197	0
112	2145	197.1	0
112	2145	197.2	0
112	2145	197.3	0
112	2145	197.4	0
112	2145	197.5	0
112	2145	197.6	0
112	2145	197.7	0
112	2145	197.8	0
112	2145	197.9	0
112	2145	198	0
112	2145	198.1	0
112	2145	198.2	0
112	2145	198.3	0
112	2145	198.4	0
112	2145	198.5	0
112	2145	198.6	0
112	2145	198.7	0
112	2145	198.8	0
112	2145	198.9	0
112	2145	199	0
112	2145	199.1	0
112	2145	199.2	0
112	2145	199.3	0
112	2145	199.4	0
112	2145	199.5	0
112	2145	199.6	0
112	2145	199.7	0
112	2145	199.8	0
112	2145	199.9	0
112	2145	200	0
0	0	0	0
0	0	0	0
0	0	0	2
1	0	0	3
2	0	0	0
2	0	0	0
2	0	0	2
3	0	0	3
4	0	0	1
4	753	71.000001023889	3
4	777	71.000153023889	1
4	790	71.000224023889	3
4	806	71.000376023889	1
4	818	71.000499027122	3
4	830	71.000651027122	1
5	0	0	1
5	752	71.000000519393	3
5	772	71.000152519393	1
5	789	71.000223519393	3
5	801	71.000375519393	1
5	819	71.000499141797	3
5	835	71.000651141797	1
6	0	0	15
7	0	0	15
66	773	71.000152519393	158
66	802	71.000375519393	158
66	836	71.000651141797	158
67	773	71.000152519393	158
67	802	71.000375519393	158
67	836	71.000651141797	158
68	773	71.000152519393	158
68	802	71.000375519393	158
68	836	71.000651141797	158
69	773	71.000152519393	158
69	802	71.000375519393	158
69	836	71.000651141797	158
70	773	71.000152519393	130
70	802	71.000375519393	130
70	836	71.000651141797	130
71	776	71.000152519393	108
71	805	71.000375519393	108
71	839	71.000651141797	108
72	776	71.000152519393	1
72	805	71.000375519393	2
72	839	71.000651141797	3
73	778	71.000153023889	158
73	807	71.000376023889	158
73	831	71.000651027122	158
74	778	71.000153023889	158
74	807	71.000376023889	158
74	831	71.000651027122	158
75	778	71.000153023889	158
75	807	71.000376023889	158
75	831	71.000651027122	158
76	778	71.000153023889	158
76	807	71.000376023889	158
76	831	71.000651027122	158
77	778	71.000153023889	130
77	807	71.000376023889	130
77	831	71.000651027122	130
78	781	71.000153023889	108
78	810	71.000376023889	108
78	834	71.000651027122	108
79	781	71.000153023889	1
79	810	71.000376023889	2
79	834	71.000651027122	3

