version 2
run plain-0-20250605-09:49:46-17524
attr configname plain
attr datetime 20250605-09:49:46
attr experiment plain
attr inifile omnetpp.ini
attr iterationvars ""
attr iterationvarsf ""
attr measurement ""
attr network Scenario
attr processid 17524
attr repetition 0
attr replication #0
attr resultdir results
attr runnumber 0
attr seedset 0
param *.node[*].numApps 1
param *.node[*].app[0].typename "\"v2xsimulation.veins_inet.VeinsInetSampleApplication\""
param *.node[*].app[0].interface "\"wlan0\""
param *.node[*].wlan[0].opMode "\"p\""
param *.node[*].wlan[0].radio.typename "\"Ieee80211DimensionalRadio\""
param *.node[*].wlan[0].radio.bandName "\"5.9 GHz\""
param *.node[*].wlan[0].radio.channelNumber 3
param *.node[*].wlan[0].radio.transmitter.power 20mW
param *.node[*].wlan[0].radio.bandwidth "10 MHz"
param *.node[*].wlan[*].radio.antenna.mobility.typename "\"AttachedMobility\""
param *.node[*].wlan[*].radio.antenna.mobility.mobilityModule "\"^.^.^.^.mobility\""
param *.node[*].wlan[*].radio.antenna.mobility.offsetX -2.5m
param *.node[*].wlan[*].radio.antenna.mobility.offsetZ 1.5m
param *.node[*].wlan[*].radio.antenna.mobility.constraintAreaMinX 0m
param *.node[*].wlan[*].radio.antenna.mobility.constraintAreaMaxX 0m
param *.node[*].wlan[*].radio.antenna.mobility.constraintAreaMinY 0m
param *.node[*].wlan[*].radio.antenna.mobility.constraintAreaMaxY 0m
param *.node[*].wlan[*].radio.antenna.mobility.constraintAreaMinZ 0m
param *.node[*].wlan[*].radio.antenna.mobility.constraintAreaMaxZ 0m
param *.**.ipv4.configurator.typename "\"HostAutoConfigurator\""
param *.**.ipv4.configurator.interfaces "\"wlan0\""
param *.**.ipv4.configurator.mcastGroups "\"224.0.0.1\""
param *.node[*].mobility.typename "\"VeinsInetMobility\""
param *.manager.updateInterval 0.1s
param *.manager.host "\"localhost\""
param *.manager.port 9999
param *.manager.autoShutdown true
param *.manager.launchConfig "xmldoc(\"nh29.launchd.xml\")"
param *.manager.moduleType "\"v2xsimulation.veins_inet.VeinsInetCar\""
param *.physicalEnvironment.config "xmldoc(\"obstacles.xml\")"
param *.radioMedium.obstacleLoss.typename "\"IdealObstacleLoss\""

vector 0 Scenario.rsu1.wlan[0].radio radioMode:vector ETV
attr interpolationmode sample-hold
attr source radioModeChanged
attr title "Radio mode, vector"
vector 1 Scenario.rsu1.wlan[0].radio radioChannel:vector ETV
attr interpolationmode sample-hold
attr source radioChannelChanged
attr title "Radio channel, vector"
vector 2 Scenario.rsu2.wlan[0].radio radioMode:vector ETV
attr interpolationmode sample-hold
attr source radioModeChanged
attr title "Radio mode, vector"
vector 3 Scenario.rsu2.wlan[0].radio radioChannel:vector ETV
attr interpolationmode sample-hold
attr source radioChannelChanged
attr title "Radio channel, vector"
vector 4 Scenario.rsu1.wlan[0].radio receptionState:vector ETV
attr interpolationmode sample-hold
attr source receptionStateChanged
attr title "Radio reception state, vector"
vector 5 Scenario.rsu2.wlan[0].radio receptionState:vector ETV
attr interpolationmode sample-hold
attr source receptionStateChanged
attr title "Radio reception state, vector"
vector 6 Scenario.rsu1.wlan[0].mac.dcf.recoveryProcedure contentionWindowChanged:vector ETV
attr interpolationmode sample-hold
attr title "contention window, vector"
vector 7 Scenario.rsu2.wlan[0].mac.dcf.recoveryProcedure contentionWindowChanged:vector ETV
attr interpolationmode sample-hold
attr title "contention window, vector"
vector 8 Scenario.node[0].wlan[0].radio radioMode:vector ETV
attr interpolationmode sample-hold
attr source radioModeChanged
attr title "Radio mode, vector"
vector 9 Scenario.node[0].wlan[0].radio radioChannel:vector ETV
attr interpolationmode sample-hold
attr source radioChannelChanged
attr title "Radio channel, vector"
vector 10 Scenario.node[0].wlan[0].radio receptionState:vector ETV
attr interpolationmode sample-hold
attr source receptionStateChanged
attr title "Radio reception state, vector"
vector 11 Scenario.node[0].wlan[0].mac.dcf.recoveryProcedure contentionWindowChanged:vector ETV
attr interpolationmode sample-hold
attr title "contention window, vector"
vector 12 Scenario.node[1].wlan[0].radio radioMode:vector ETV
attr interpolationmode sample-hold
attr source radioModeChanged
attr title "Radio mode, vector"
vector 13 Scenario.node[1].wlan[0].radio radioChannel:vector ETV
attr interpolationmode sample-hold
attr source radioChannelChanged
attr title "Radio channel, vector"
vector 14 Scenario.node[1].wlan[0].radio receptionState:vector ETV
attr interpolationmode sample-hold
attr source receptionStateChanged
attr title "Radio reception state, vector"
vector 15 Scenario.node[1].wlan[0].mac.dcf.recoveryProcedure contentionWindowChanged:vector ETV
attr interpolationmode sample-hold
attr title "contention window, vector"
vector 16 Scenario.node[2].wlan[0].radio radioMode:vector ETV
attr interpolationmode sample-hold
attr source radioModeChanged
attr title "Radio mode, vector"
vector 17 Scenario.node[2].wlan[0].radio radioChannel:vector ETV
attr interpolationmode sample-hold
attr source radioChannelChanged
attr title "Radio channel, vector"
vector 18 Scenario.node[2].wlan[0].radio receptionState:vector ETV
attr interpolationmode sample-hold
attr source receptionStateChanged
attr title "Radio reception state, vector"
vector 19 Scenario.node[2].wlan[0].mac.dcf.recoveryProcedure contentionWindowChanged:vector ETV
attr interpolationmode sample-hold
attr title "contention window, vector"
vector 20 Scenario.node[3].wlan[0].radio radioMode:vector ETV
attr interpolationmode sample-hold
attr source radioModeChanged
attr title "Radio mode, vector"
vector 21 Scenario.node[3].wlan[0].radio radioChannel:vector ETV
attr interpolationmode sample-hold
attr source radioChannelChanged
attr title "Radio channel, vector"
vector 22 Scenario.node[3].wlan[0].radio receptionState:vector ETV
attr interpolationmode sample-hold
attr source receptionStateChanged
attr title "Radio reception state, vector"
vector 23 Scenario.node[3].wlan[0].mac.dcf.recoveryProcedure contentionWindowChanged:vector ETV
attr interpolationmode sample-hold
attr title "contention window, vector"
vector 24 Scenario.node[0].app[0] packetSent:vector(packetBytes) ETV
attr interpolationmode none
attr source packetSent
attr title "packets sent, vector(packetBytes)"
vector 25 Scenario.node[0].udp packetSent:vector(packetBytes) ETV
attr interpolationmode none
attr source packetSent
attr title "packets sent, vector(packetBytes)"
vector 26 Scenario.node[0].lo[0].lo rcvdPkFromHl:vector(packetBytes) ETV
attr interpolationmode none
attr source packetReceivedFromUpper
attr title "packets received from higher layer, vector(packetBytes)"
vector 27 Scenario.node[0].lo[0].lo passedUpPk:vector(packetBytes) ETV
attr interpolationmode none
attr source packetSentToUpper
attr title "packets passed to higher layer, vector(packetBytes)"
vector 28 Scenario.node[0].wlan[0].mac packetReceivedFromUpper:vector(packetBytes) ETV
attr interpolationmode none
attr title "packets received from upper layer, vector(packetBytes)"
vector 29 Scenario.node[0].wlan[0].mac.dcf.channelAccess.pendingQueue packetPushed:vector(packetBytes) ETV
attr interpolationmode none
attr title "packet pushed, vector(packetBytes)"
vector 30 Scenario.node[0].wlan[0].mac.dcf.channelAccess.pendingQueue queueLength:vector ETV
attr interpolationmode sample-hold
attr source "count(packetPushed) - count(packetPopped) - count(packetRemoved) - count(packetDropped)"
attr title "queue length, vector"
vector 31 Scenario.node[0].wlan[0].mac.dcf.channelAccess.contention backoffPeriodGenerated:vector ETV
attr interpolationmode none
attr title "backoff periods, vector"
vector 32 Scenario.node[0].wlan[0].mac.dcf.channelAccess.contention backoffActive:vector ETV
attr interpolationmode sample-hold
attr source count(backoffStarted)-count(backoffStopped)
attr title "backoff active, vector"
vector 33 Scenario.node[0].udp packetReceived:vector(packetBytes) ETV
attr interpolationmode none
attr source packetReceived
attr title "packets received, vector(packetBytes)"
vector 34 Scenario.node[0].udp passedUpPk:vector(count) ETV
attr interpolationmode none
attr source packetSentToUpper
attr title "packets passed up, vector(count)"
vector 35 Scenario.node[0].app[0] packetReceived:vector(packetBytes) ETV
attr interpolationmode none
attr source packetReceived
attr title "packets received, vector(packetBytes)"
vector 36 Scenario.node[0].app[0] throughput:vector ETV
attr source throughput(packetReceived)
attr title "throughput, vector"
attr unit bps
vector 37 Scenario.node[0].wlan[0].mac.dcf.channelAccess.pendingQueue packetPopped:vector(packetBytes) ETV
attr interpolationmode none
attr title "packet popped, vector(packetBytes)"
vector 38 Scenario.node[0].wlan[0].mac.dcf.channelAccess.pendingQueue queueingTime:vector ETV
attr interpolationmode none
attr source queueingTime(packetPopped)
attr title "queueing times, vector"
attr unit s
vector 39 Scenario.node[0].wlan[0].mac.dcf.channelAccess.inProgressFrames queueLength:vector ETV
attr interpolationmode sample-hold
attr source "count(packetEnqueued) - count(packetDequeued)"
attr title "queue length, vector"
vector 40 Scenario.node[0].wlan[0].mac.dcf datarateSelected:vector ETV
attr interpolationmode none
attr title "datarates selected, vector"
vector 41 Scenario.node[0].wlan[0].mac packetSentToLower:vector(packetBytes) ETV
attr interpolationmode none
attr title "packets sent to lower layer, vector(packetBytes)"
vector 42 Scenario.node[0].wlan[0].mac.dcf frameSequenceActive:vector ETV
attr interpolationmode sample-hold
attr source count(frameSequenceStarted)-count(frameSequenceFinished)
attr title "frame sequence active, vector"
vector 43 Scenario.node[0].wlan[0].radio transmissionState:vector ETV
attr interpolationmode sample-hold
attr source transmissionStateChanged
attr title "Radio transmission state, vector"
vector 44 Scenario.node[0].wlan[0].mac.dcf packetSentToPeer:vector(packetBytes) ETV
attr interpolationmode none
attr title "packets sent, vector(packetBytes)"
vector 45 Scenario.node[0].wlan[0].mac.dcf packetSentToPeerMulticast:vector(packetBytes) ETV
attr interpolationmode none
attr source ieee80211Multicast(packetSentToPeer)
attr title "packets sent: multicast, vector(packetBytes)"
vector 46 Scenario.node[0].wlan[0].mac.dcf packetSentToPeerWithoutRetry:vector(packetBytes) ETV
attr interpolationmode none
attr source ieee80211NotRetry(packetSentToPeer)
attr title "packets sent: without retry, vector(packetBytes)"
vector 47 Scenario.node[0].wlan[0].mac.dcf.channelAccess.inProgressFrames queueingTime:vector ETV
attr interpolationmode none
attr source queueingTime(packetDequeued)
attr title "queueing times, vector"
vector 48 Scenario.node[2].wlan[0].mac packetReceivedFromLower:vector(packetBytes) ETV
attr interpolationmode none
attr title "packets received from lower layer, vector(packetBytes)"
vector 49 Scenario.node[2].wlan[0].mac.dcf packetReceivedFromPeer:vector(packetBytes) ETV
attr interpolationmode none
attr title "packets received, vector(packetBytes)"
vector 50 Scenario.node[2].wlan[0].mac.dcf packetReceivedFromPeerMulticast:vector(packetBytes) ETV
attr interpolationmode none
attr source ieee80211Multicast(packetReceivedFromPeer)
attr title "packets received: multicast, vector(packetBytes)"
vector 51 Scenario.node[2].wlan[0].mac.dcf packetReceivedFromPeerWithoutRetry:vector(packetBytes) ETV
attr interpolationmode none
attr source ieee80211NotRetry(packetReceivedFromPeer)
attr title "packets received: without retry, vector(packetBytes)"
vector 52 Scenario.node[2].wlan[0].mac packetSentToUpper:vector(packetBytes) ETV
attr interpolationmode none
attr title "packets sent to upper layer, vector(packetBytes)"
vector 53 Scenario.node[2].udp packetReceived:vector(packetBytes) ETV
attr interpolationmode none
attr source packetReceived
attr title "packets received, vector(packetBytes)"
vector 54 Scenario.node[2].udp passedUpPk:vector(count) ETV
attr interpolationmode none
attr source packetSentToUpper
attr title "packets passed up, vector(count)"
vector 55 Scenario.node[2].app[0] packetReceived:vector(packetBytes) ETV
attr interpolationmode none
attr source packetReceived
attr title "packets received, vector(packetBytes)"
vector 56 Scenario.node[2].app[0] throughput:vector ETV
attr source throughput(packetReceived)
attr title "throughput, vector"
attr unit bps
vector 57 Scenario.node[2].app[0] packetSent:vector(packetBytes) ETV
attr interpolationmode none
attr source packetSent
attr title "packets sent, vector(packetBytes)"
vector 58 Scenario.node[2].udp packetSent:vector(packetBytes) ETV
attr interpolationmode none
attr source packetSent
attr title "packets sent, vector(packetBytes)"
vector 59 Scenario.node[2].lo[0].lo rcvdPkFromHl:vector(packetBytes) ETV
attr interpolationmode none
attr source packetReceivedFromUpper
attr title "packets received from higher layer, vector(packetBytes)"
vector 60 Scenario.node[2].lo[0].lo passedUpPk:vector(packetBytes) ETV
attr interpolationmode none
attr source packetSentToUpper
attr title "packets passed to higher layer, vector(packetBytes)"
vector 61 Scenario.node[2].wlan[0].mac packetReceivedFromUpper:vector(packetBytes) ETV
attr interpolationmode none
attr title "packets received from upper layer, vector(packetBytes)"
vector 62 Scenario.node[2].wlan[0].mac.dcf.channelAccess.pendingQueue packetPushed:vector(packetBytes) ETV
attr interpolationmode none
attr title "packet pushed, vector(packetBytes)"
vector 63 Scenario.node[2].wlan[0].mac.dcf.channelAccess.pendingQueue queueLength:vector ETV
attr interpolationmode sample-hold
attr source "count(packetPushed) - count(packetPopped) - count(packetRemoved) - count(packetDropped)"
attr title "queue length, vector"
vector 64 Scenario.node[2].wlan[0].mac.dcf.channelAccess.contention backoffPeriodGenerated:vector ETV
attr interpolationmode none
attr title "backoff periods, vector"
vector 65 Scenario.node[2].wlan[0].mac.dcf.channelAccess.contention backoffActive:vector ETV
attr interpolationmode sample-hold
attr source count(backoffStarted)-count(backoffStopped)
attr title "backoff active, vector"
vector 66 Scenario.node[2].wlan[0].mac.dcf.channelAccess.pendingQueue packetPopped:vector(packetBytes) ETV
attr interpolationmode none
attr title "packet popped, vector(packetBytes)"
vector 67 Scenario.node[2].wlan[0].mac.dcf.channelAccess.pendingQueue queueingTime:vector ETV
attr interpolationmode none
attr source queueingTime(packetPopped)
attr title "queueing times, vector"
attr unit s
vector 68 Scenario.node[2].wlan[0].mac.dcf.channelAccess.inProgressFrames queueLength:vector ETV
attr interpolationmode sample-hold
attr source "count(packetEnqueued) - count(packetDequeued)"
attr title "queue length, vector"
vector 69 Scenario.node[2].wlan[0].mac.dcf datarateSelected:vector ETV
attr interpolationmode none
attr title "datarates selected, vector"
vector 70 Scenario.node[2].wlan[0].mac packetSentToLower:vector(packetBytes) ETV
attr interpolationmode none
attr title "packets sent to lower layer, vector(packetBytes)"
vector 71 Scenario.node[2].wlan[0].mac.dcf frameSequenceActive:vector ETV
attr interpolationmode sample-hold
attr source count(frameSequenceStarted)-count(frameSequenceFinished)
attr title "frame sequence active, vector"
vector 72 Scenario.node[2].wlan[0].radio transmissionState:vector ETV
attr interpolationmode sample-hold
attr source transmissionStateChanged
attr title "Radio transmission state, vector"
vector 73 Scenario.node[2].wlan[0].mac.dcf packetSentToPeer:vector(packetBytes) ETV
attr interpolationmode none
attr title "packets sent, vector(packetBytes)"
vector 74 Scenario.node[2].wlan[0].mac.dcf packetSentToPeerMulticast:vector(packetBytes) ETV
attr interpolationmode none
attr source ieee80211Multicast(packetSentToPeer)
attr title "packets sent: multicast, vector(packetBytes)"
vector 75 Scenario.node[2].wlan[0].mac.dcf packetSentToPeerWithoutRetry:vector(packetBytes) ETV
attr interpolationmode none
attr source ieee80211NotRetry(packetSentToPeer)
attr title "packets sent: without retry, vector(packetBytes)"
vector 76 Scenario.node[2].wlan[0].mac.dcf.channelAccess.inProgressFrames queueingTime:vector ETV
attr interpolationmode none
attr source queueingTime(packetDequeued)
attr title "queueing times, vector"
vector 77 Scenario.node[0].wlan[0].mac packetReceivedFromLower:vector(packetBytes) ETV
attr interpolationmode none
attr title "packets received from lower layer, vector(packetBytes)"
vector 78 Scenario.node[0].wlan[0].mac.dcf packetReceivedFromPeer:vector(packetBytes) ETV
attr interpolationmode none
attr title "packets received, vector(packetBytes)"
vector 79 Scenario.node[0].wlan[0].mac.dcf packetReceivedFromPeerMulticast:vector(packetBytes) ETV
attr interpolationmode none
attr source ieee80211Multicast(packetReceivedFromPeer)
attr title "packets received: multicast, vector(packetBytes)"
vector 80 Scenario.node[0].wlan[0].mac.dcf packetReceivedFromPeerWithoutRetry:vector(packetBytes) ETV
attr interpolationmode none
attr source ieee80211NotRetry(packetReceivedFromPeer)
attr title "packets received: without retry, vector(packetBytes)"
vector 81 Scenario.node[0].wlan[0].mac packetSentToUpper:vector(packetBytes) ETV
attr interpolationmode none
attr title "packets sent to upper layer, vector(packetBytes)"
vector 82 Scenario.node[4].wlan[0].radio radioMode:vector ETV
attr interpolationmode sample-hold
attr source radioModeChanged
attr title "Radio mode, vector"
vector 83 Scenario.node[4].wlan[0].radio radioChannel:vector ETV
attr interpolationmode sample-hold
attr source radioChannelChanged
attr title "Radio channel, vector"
vector 84 Scenario.node[4].wlan[0].radio receptionState:vector ETV
attr interpolationmode sample-hold
attr source receptionStateChanged
attr title "Radio reception state, vector"
vector 85 Scenario.node[4].wlan[0].mac.dcf.recoveryProcedure contentionWindowChanged:vector ETV
attr interpolationmode sample-hold
attr title "contention window, vector"
vector 86 Scenario.node[5].wlan[0].radio radioMode:vector ETV
attr interpolationmode sample-hold
attr source radioModeChanged
attr title "Radio mode, vector"
vector 87 Scenario.node[5].wlan[0].radio radioChannel:vector ETV
attr interpolationmode sample-hold
attr source radioChannelChanged
attr title "Radio channel, vector"
vector 88 Scenario.node[5].wlan[0].radio receptionState:vector ETV
attr interpolationmode sample-hold
attr source receptionStateChanged
attr title "Radio reception state, vector"
vector 89 Scenario.node[5].wlan[0].mac.dcf.recoveryProcedure contentionWindowChanged:vector ETV
attr interpolationmode sample-hold
attr title "contention window, vector"
vector 90 Scenario.node[6].wlan[0].radio radioMode:vector ETV
attr interpolationmode sample-hold
attr source radioModeChanged
attr title "Radio mode, vector"
vector 91 Scenario.node[6].wlan[0].radio radioChannel:vector ETV
attr interpolationmode sample-hold
attr source radioChannelChanged
attr title "Radio channel, vector"
vector 92 Scenario.node[6].wlan[0].radio receptionState:vector ETV
attr interpolationmode sample-hold
attr source receptionStateChanged
attr title "Radio reception state, vector"
vector 93 Scenario.node[6].wlan[0].mac.dcf.recoveryProcedure contentionWindowChanged:vector ETV
attr interpolationmode sample-hold
attr title "contention window, vector"
59	760	71.000152351245	128
60	760	71.000152351245	128
48	753	71.000152351245	158
48	782	71.000375351245	158
70	792	71.000498351245	158
61	763	71.000152351245	130
52	753	71.000152351245	130
52	782	71.000375351245	130
51	753	71.000152351245	158
51	782	71.000375351245	158
50	753	71.000152351245	158
50	782	71.000375351245	158
49	753	71.000152351245	158
49	782	71.000375351245	158
75	800	71.000650351245	158
74	800	71.000650351245	158
73	800	71.000650351245	158
71	792	71.000498351245	1
71	800	71.000650351245	0
69	792	71.000498351245	12000000
67	792	71.000498351245	0.000346
66	792	71.000498351245	158
62	763	71.000152351245	158
63	763	71.000152351245	1
63	792	71.000498351245	0
76	800	71.000650351245	0.000152
68	792	71.000498351245	1
68	800	71.000650351245	0
65	763	71.000152351245	1
65	774	71.000223351245	0
65	781	71.000375351245	1
65	791	71.000498351245	0
64	763	71.000152351245	6
19	58	5.1	15
72	793	71.000498351245	1
72	794	71.000498351245	2
72	800	71.000650351245	1
72	801	71.000650351245	0
18	58	5.1	1
18	745	71.000000351245	3
18	752	71.000152351245	1
18	774	71.000223351245	3
18	781	71.000375351245	1
18	793	71.000498351245	0
18	801	71.000650351245	1
16	58	5.1	0
16	58	5.1	0
16	58	5.1	2
16	793	71.000498351245	3
16	801	71.000650351245	2
17	58	5.1	3
53	756	71.000152351245	108
53	764	71.000152351245	108
53	785	71.000375351245	108
58	758	71.000152351245	108
54	756	71.000152351245	1
54	764	71.000152351245	2
54	785	71.000375351245	3
56	757	0.1	0
56	757	0.2	0
56	757	0.3	0
56	757	0.4	0
56	757	0.5	0
56	757	0.6	0
56	757	0.7	0
56	757	0.8	0
56	757	0.9	0
56	757	1	0
56	757	1.1	0
56	757	1.2	0
56	757	1.3	0
56	757	1.4	0
56	757	1.5	0
56	757	1.6	0
56	757	1.7	0
56	757	1.8	0
56	757	1.9	0
56	757	2	0
56	757	2.1	0
56	757	2.2	0
56	757	2.3	0
56	757	2.4	0
56	757	2.5	0
56	757	2.6	0
56	757	2.7	0
56	757	2.8	0
56	757	2.9	0
56	757	3	0
56	757	3.1	0
56	757	3.2	0
56	757	3.3	0
56	757	3.4	0
56	757	3.5	0
56	757	3.6	0
56	757	3.7	0
56	757	3.8	0
56	757	3.9	0
56	757	4	0
56	757	4.1	0
56	757	4.2	0
56	757	4.3	0
56	757	4.4	0
56	757	4.5	0
56	757	4.6	0
56	757	4.7	0
56	757	4.8	0
56	757	4.9	0
56	757	5	0
56	757	5.1	0
56	757	5.2	0
56	757	5.3	0
56	757	5.4	0
56	757	5.5	0
56	757	5.6	0
56	757	5.7	0
56	757	5.8	0
56	757	5.9	0
56	757	6	0
56	757	6.1	0
56	757	6.2	0
56	757	6.3	0
56	757	6.4	0
56	757	6.5	0
56	757	6.6	0
56	757	6.7	0
56	757	6.8	0
56	757	6.9	0
56	757	7	0
56	757	7.1	0
56	757	7.2	0
56	757	7.3	0
56	757	7.4	0
56	757	7.5	0
56	757	7.6	0
56	757	7.7	0
56	757	7.8	0
56	757	7.9	0
56	757	8	0
56	757	8.1	0
56	757	8.2	0
56	757	8.3	0
56	757	8.4	0
56	757	8.5	0
56	757	8.6	0
56	757	8.7	0
56	757	8.8	0
56	757	8.9	0
56	757	9	0
56	757	9.1	0
56	757	9.2	0
56	757	9.3	0
56	757	9.4	0
56	757	9.5	0
56	757	9.6	0
56	757	9.7	0
56	757	9.8	0
56	757	9.9	0
56	757	10	0
56	757	10.1	0
56	757	10.2	0
56	757	10.3	0
56	757	10.4	0
56	757	10.5	0
56	757	10.6	0
56	757	10.7	0
56	757	10.8	0
56	757	10.9	0
56	757	11	0
56	757	11.1	0
56	757	11.2	0
56	757	11.3	0
56	757	11.4	0
56	757	11.5	0
56	757	11.6	0
56	757	11.7	0
56	757	11.8	0
56	757	11.9	0
56	757	12	0
56	757	12.1	0
56	757	12.2	0
56	757	12.3	0
56	757	12.4	0
56	757	12.5	0
56	757	12.6	0
56	757	12.7	0
56	757	12.8	0
56	757	12.9	0
56	757	13	0
56	757	13.1	0
56	757	13.2	0
56	757	13.3	0
56	757	13.4	0
56	757	13.5	0
56	757	13.6	0
56	757	13.7	0
56	757	13.8	0
56	757	13.9	0
56	757	14	0
56	757	14.1	0
56	757	14.2	0
56	757	14.3	0
56	757	14.4	0
56	757	14.5	0
56	757	14.6	0
56	757	14.7	0
56	757	14.8	0
56	757	14.9	0
56	757	15	0
56	757	15.1	0
56	757	15.2	0
56	757	15.3	0
56	757	15.4	0
56	757	15.5	0
56	757	15.6	0
56	757	15.7	0
56	757	15.8	0
56	757	15.9	0
56	757	16	0
56	757	16.1	0
56	757	16.2	0
56	757	16.3	0
56	757	16.4	0
56	757	16.5	0
56	757	16.6	0
56	757	16.7	0
56	757	16.8	0
56	757	16.9	0
56	757	17	0
56	757	17.1	0
56	757	17.2	0
56	757	17.3	0
56	757	17.4	0
56	757	17.5	0
56	757	17.6	0
56	757	17.7	0
56	757	17.8	0
56	757	17.9	0
56	757	18	0
56	757	18.1	0
56	757	18.2	0
56	757	18.3	0
56	757	18.4	0
56	757	18.5	0
56	757	18.6	0
56	757	18.7	0
56	757	18.8	0
56	757	18.9	0
56	757	19	0
56	757	19.1	0
56	757	19.2	0
56	757	19.3	0
56	757	19.4	0
56	757	19.5	0
56	757	19.6	0
56	757	19.7	0
56	757	19.8	0
56	757	19.9	0
56	757	20	0
56	757	20.1	0
56	757	20.2	0
56	757	20.3	0
56	757	20.4	0
56	757	20.5	0
56	757	20.6	0
56	757	20.7	0
56	757	20.8	0
56	757	20.9	0
56	757	21	0
56	757	21.1	0
56	757	21.2	0
56	757	21.3	0
56	757	21.4	0
56	757	21.5	0
56	757	21.6	0
56	757	21.7	0
56	757	21.8	0
56	757	21.9	0
56	757	22	0
56	757	22.1	0
56	757	22.2	0
56	757	22.3	0
56	757	22.4	0
56	757	22.5	0
56	757	22.6	0
56	757	22.7	0
56	757	22.8	0
56	757	22.9	0
56	757	23	0
56	757	23.1	0
56	757	23.2	0
56	757	23.3	0
56	757	23.4	0
56	757	23.5	0
56	757	23.6	0
56	757	23.7	0
56	757	23.8	0
56	757	23.9	0
56	757	24	0
56	757	24.1	0
56	757	24.2	0
56	757	24.3	0
56	757	24.4	0
56	757	24.5	0
56	757	24.6	0
56	757	24.7	0
56	757	24.8	0
56	757	24.9	0
56	757	25	0
56	757	25.1	0
56	757	25.2	0
56	757	25.3	0
56	757	25.4	0
56	757	25.5	0
56	757	25.6	0
56	757	25.7	0
56	757	25.8	0
56	757	25.9	0
56	757	26	0
56	757	26.1	0
56	757	26.2	0
56	757	26.3	0
56	757	26.4	0
56	757	26.5	0
56	757	26.6	0
56	757	26.7	0
56	757	26.8	0
56	757	26.9	0
56	757	27	0
56	757	27.1	0
56	757	27.2	0
56	757	27.3	0
56	757	27.4	0
56	757	27.5	0
56	757	27.6	0
56	757	27.7	0
56	757	27.8	0
56	757	27.9	0
56	757	28	0
56	757	28.1	0
56	757	28.2	0
56	757	28.3	0
56	757	28.4	0
56	757	28.5	0
56	757	28.6	0
56	757	28.7	0
56	757	28.8	0
56	757	28.9	0
56	757	29	0
56	757	29.1	0
56	757	29.2	0
56	757	29.3	0
56	757	29.4	0
56	757	29.5	0
56	757	29.6	0
56	757	29.7	0
56	757	29.8	0
56	757	29.9	0
56	757	30	0
56	757	30.1	0
56	757	30.2	0
56	757	30.3	0
56	757	30.4	0
56	757	30.5	0
56	757	30.6	0
56	757	30.7	0
56	757	30.8	0
56	757	30.9	0
56	757	31	0
56	757	31.1	0
56	757	31.2	0
56	757	31.3	0
56	757	31.4	0
56	757	31.5	0
56	757	31.6	0
56	757	31.7	0
56	757	31.8	0
56	757	31.9	0
56	757	32	0
56	757	32.1	0
56	757	32.2	0
56	757	32.3	0
56	757	32.4	0
56	757	32.5	0
56	757	32.6	0
56	757	32.7	0
56	757	32.8	0
56	757	32.9	0
56	757	33	0
56	757	33.1	0
56	757	33.2	0
56	757	33.3	0
56	757	33.4	0
56	757	33.5	0
56	757	33.6	0
56	757	33.7	0
56	757	33.8	0
56	757	33.9	0
56	757	34	0
56	757	34.1	0
56	757	34.2	0
56	757	34.3	0
56	757	34.4	0
56	757	34.5	0
56	757	34.6	0
56	757	34.7	0
56	757	34.8	0
56	757	34.9	0
56	757	35	0
56	757	35.1	0
56	757	35.2	0
56	757	35.3	0
56	757	35.4	0
56	757	35.5	0
56	757	35.6	0
56	757	35.7	0
56	757	35.8	0
56	757	35.9	0
56	757	36	0
56	757	36.1	0
56	757	36.2	0
56	757	36.3	0
56	757	36.4	0
56	757	36.5	0
56	757	36.6	0
56	757	36.7	0
56	757	36.8	0
56	757	36.9	0
56	757	37	0
56	757	37.1	0
56	757	37.2	0
56	757	37.3	0
56	757	37.4	0
56	757	37.5	0
56	757	37.6	0
56	757	37.7	0
56	757	37.8	0
56	757	37.9	0
56	757	38	0
56	757	38.1	0
56	757	38.2	0
56	757	38.3	0
56	757	38.4	0
56	757	38.5	0
56	757	38.6	0
56	757	38.7	0
56	757	38.8	0
56	757	38.9	0
56	757	39	0
56	757	39.1	0
56	757	39.2	0
56	757	39.3	0
56	757	39.4	0
56	757	39.5	0
56	757	39.6	0
56	757	39.7	0
56	757	39.8	0
56	757	39.9	0
56	757	40	0
56	757	40.1	0
56	757	40.2	0
56	757	40.3	0
56	757	40.4	0
56	757	40.5	0
56	757	40.6	0
56	757	40.7	0
56	757	40.8	0
56	757	40.9	0
56	757	41	0
56	757	41.1	0
56	757	41.2	0
56	757	41.3	0
56	757	41.4	0
56	757	41.5	0
56	757	41.6	0
56	757	41.7	0
56	757	41.8	0
56	757	41.9	0
56	757	42	0
56	757	42.1	0
56	757	42.2	0
56	757	42.3	0
56	757	42.4	0
56	757	42.5	0
56	757	42.6	0
56	757	42.7	0
56	757	42.8	0
56	757	42.9	0
56	757	43	0
56	757	43.1	0
56	757	43.2	0
56	757	43.3	0
56	757	43.4	0
56	757	43.5	0
56	757	43.6	0
56	757	43.7	0
56	757	43.8	0
56	757	43.9	0
56	757	44	0
56	757	44.1	0
56	757	44.2	0
56	757	44.3	0
56	757	44.4	0
56	757	44.5	0
56	757	44.6	0
56	757	44.7	0
56	757	44.8	0
56	757	44.9	0
56	757	45	0
56	757	45.1	0
56	757	45.2	0
56	757	45.3	0
56	757	45.4	0
56	757	45.5	0
56	757	45.6	0
56	757	45.7	0
56	757	45.8	0
56	757	45.9	0
56	757	46	0
56	757	46.1	0
56	757	46.2	0
56	757	46.3	0
56	757	46.4	0
56	757	46.5	0
56	757	46.6	0
56	757	46.7	0
56	757	46.8	0
56	757	46.9	0
56	757	47	0
56	757	47.1	0
56	757	47.2	0
56	757	47.3	0
56	757	47.4	0
56	757	47.5	0
56	757	47.6	0
56	757	47.7	0
56	757	47.8	0
56	757	47.9	0
56	757	48	0
56	757	48.1	0
56	757	48.2	0
56	757	48.3	0
56	757	48.4	0
56	757	48.5	0
56	757	48.6	0
56	757	48.7	0
56	757	48.8	0
56	757	48.9	0
56	757	49	0
56	757	49.1	0
56	757	49.2	0
56	757	49.3	0
56	757	49.4	0
56	757	49.5	0
56	757	49.6	0
56	757	49.7	0
56	757	49.8	0
56	757	49.9	0
56	757	50	0
56	757	50.1	0
56	757	50.2	0
56	757	50.3	0
56	757	50.4	0
56	757	50.5	0
56	757	50.6	0
56	757	50.7	0
56	757	50.8	0
56	757	50.9	0
56	757	51	0
56	757	51.1	0
56	757	51.2	0
56	757	51.3	0
56	757	51.4	0
56	757	51.5	0
56	757	51.6	0
56	757	51.7	0
56	757	51.8	0
56	757	51.9	0
56	757	52	0
56	757	52.1	0
56	757	52.2	0
56	757	52.3	0
56	757	52.4	0
56	757	52.5	0
56	757	52.6	0
56	757	52.7	0
56	757	52.8	0
56	757	52.9	0
56	757	53	0
56	757	53.1	0
56	757	53.2	0
56	757	53.3	0
56	757	53.4	0
56	757	53.5	0
56	757	53.6	0
56	757	53.7	0
56	757	53.8	0
56	757	53.9	0
56	757	54	0
56	757	54.1	0
56	757	54.2	0
56	757	54.3	0
56	757	54.4	0
56	757	54.5	0
56	757	54.6	0
56	757	54.7	0
56	757	54.8	0
56	757	54.9	0
56	757	55	0
56	757	55.1	0
56	757	55.2	0
56	757	55.3	0
56	757	55.4	0
56	757	55.5	0
56	757	55.6	0
56	757	55.7	0
56	757	55.8	0
56	757	55.9	0
56	757	56	0
56	757	56.1	0
56	757	56.2	0
56	757	56.3	0
56	757	56.4	0
56	757	56.5	0
56	757	56.6	0
56	757	56.7	0
56	757	56.8	0
56	757	56.9	0
56	757	57	0
56	757	57.1	0
56	757	57.2	0
56	757	57.3	0
56	757	57.4	0
56	757	57.5	0
56	757	57.6	0
56	757	57.7	0
56	757	57.8	0
56	757	57.9	0
56	757	58	0
56	757	58.1	0
56	757	58.2	0
56	757	58.3	0
56	757	58.4	0
56	757	58.5	0
56	757	58.6	0
56	757	58.7	0
56	757	58.8	0
56	757	58.9	0
56	757	59	0
56	757	59.1	0
56	757	59.2	0
56	757	59.3	0
56	757	59.4	0
56	757	59.5	0
56	757	59.6	0
56	757	59.7	0
56	757	59.8	0
56	757	59.9	0
56	757	60	0
56	757	60.1	0
56	757	60.2	0
56	757	60.3	0
56	757	60.4	0
56	757	60.5	0
56	757	60.6	0
56	757	60.7	0
56	757	60.8	0
56	757	60.9	0
56	757	61	0
56	757	61.1	0
56	757	61.2	0
56	757	61.3	0
56	757	61.4	0
56	757	61.5	0
56	757	61.6	0
56	757	61.7	0
56	757	61.8	0
56	757	61.9	0
56	757	62	0
56	757	62.1	0
56	757	62.2	0
56	757	62.3	0
56	757	62.4	0
56	757	62.5	0
56	757	62.6	0
56	757	62.7	0
56	757	62.8	0
56	757	62.9	0
56	757	63	0
56	757	63.1	0
56	757	63.2	0
56	757	63.3	0
56	757	63.4	0
56	757	63.5	0
56	757	63.6	0
56	757	63.7	0
56	757	63.8	0
56	757	63.9	0
56	757	64	0
56	757	64.1	0
56	757	64.2	0
56	757	64.3	0
56	757	64.4	0
56	757	64.5	0
56	757	64.6	0
56	757	64.7	0
56	757	64.8	0
56	757	64.9	0
56	757	65	0
56	757	65.1	0
56	757	65.2	0
56	757	65.3	0
56	757	65.4	0
56	757	65.5	0
56	757	65.6	0
56	757	65.7	0
56	757	65.8	0
56	757	65.9	0
56	757	66	0
56	757	66.1	0
56	757	66.2	0
56	757	66.3	0
56	757	66.4	0
56	757	66.5	0
56	757	66.6	0
56	757	66.7	0
56	757	66.8	0
56	757	66.9	0
56	757	67	0
56	757	67.1	0
56	757	67.2	0
56	757	67.3	0
56	757	67.4	0
56	757	67.5	0
56	757	67.6	0
56	757	67.7	0
56	757	67.8	0
56	757	67.9	0
56	757	68	0
56	757	68.1	0
56	757	68.2	0
56	757	68.3	0
56	757	68.4	0
56	757	68.5	0
56	757	68.6	0
56	757	68.7	0
56	757	68.8	0
56	757	68.9	0
56	757	69	0
56	757	69.1	0
56	757	69.2	0
56	757	69.3	0
56	757	69.4	0
56	757	69.5	0
56	757	69.6	0
56	757	69.7	0
56	757	69.8	0
56	757	69.9	0
56	757	70	0
56	757	70.1	0
56	757	70.2	0
56	757	70.3	0
56	757	70.4	0
56	757	70.5	0
56	757	70.6	0
56	757	70.7	0
56	757	70.8	0
56	757	70.9	0
56	757	71	0
56	1295	71.1	24000
56	1295	71.2	0
56	1295	71.3	0
56	1295	71.4	0
56	1295	71.5	0
56	1295	71.6	0
56	1295	71.7	0
56	1295	71.8	0
56	1295	71.9	0
56	1295	72	0
56	1295	72.1	0
56	1295	72.2	0
56	1295	72.3	0
56	1295	72.4	0
56	1295	72.5	0
56	1295	72.6	0
56	1295	72.7	0
56	1295	72.8	0
56	1295	72.9	0
56	1295	73	0
56	1295	73.1	0
56	1295	73.2	0
56	1295	73.3	0
56	1295	73.4	0
56	1295	73.5	0
56	1295	73.6	0
56	1295	73.7	0
56	1295	73.8	0
56	1295	73.9	0
56	1295	74	0
56	1295	74.1	0
56	1295	74.2	0
56	1295	74.3	0
56	1295	74.4	0
56	1295	74.5	0
56	1295	74.6	0
56	1295	74.7	0
56	1295	74.8	0
56	1295	74.9	0
56	1295	75	0
56	1295	75.1	0
56	1295	75.2	0
56	1295	75.3	0
56	1295	75.4	0
56	1295	75.5	0
56	1295	75.6	0
56	1295	75.7	0
56	1295	75.8	0
56	1295	75.9	0
56	1295	76	0
56	1295	76.1	0
56	1295	76.2	0
56	1295	76.3	0
56	1295	76.4	0
56	1295	76.5	0
56	1295	76.6	0
56	1295	76.7	0
56	1295	76.8	0
56	1295	76.9	0
56	1295	77	0
56	1295	77.1	0
56	1295	77.2	0
56	1295	77.3	0
56	1295	77.4	0
56	1295	77.5	0
56	1295	77.6	0
56	1295	77.7	0
56	1295	77.8	0
56	1295	77.9	0
56	1295	78	0
56	1295	78.1	0
56	1295	78.2	0
56	1295	78.3	0
56	1295	78.4	0
56	1295	78.5	0
56	1295	78.6	0
56	1295	78.7	0
56	1295	78.8	0
56	1295	78.9	0
56	1295	79	0
56	1295	79.1	0
56	1295	79.2	0
56	1295	79.3	0
56	1295	79.4	0
56	1295	79.5	0
56	1295	79.6	0
56	1295	79.7	0
56	1295	79.8	0
56	1295	79.9	0
56	1295	80	0
56	1295	80.1	0
56	1295	80.2	0
56	1295	80.3	0
56	1295	80.4	0
56	1295	80.5	0
56	1295	80.6	0
56	1295	80.7	0
56	1295	80.8	0
56	1295	80.9	0
56	1295	81	0
56	1295	81.1	0
56	1295	81.2	0
56	1295	81.3	0
56	1295	81.4	0
56	1295	81.5	0
56	1295	81.6	0
56	1295	81.7	0
56	1295	81.8	0
56	1295	81.9	0
56	1295	82	0
56	1295	82.1	0
56	1295	82.2	0
56	1295	82.3	0
56	1295	82.4	0
56	1295	82.5	0
56	1295	82.6	0
56	1295	82.7	0
56	1295	82.8	0
56	1295	82.9	0
56	1295	83	0
56	1295	83.1	0
56	1295	83.2	0
56	1295	83.3	0
56	1295	83.4	0
56	1295	83.5	0
56	1295	83.6	0
56	1295	83.7	0
56	1295	83.8	0
56	1295	83.9	0
56	1295	84	0
56	1295	84.1	0
56	1295	84.2	0
56	1295	84.3	0
56	1295	84.4	0
56	1295	84.5	0
56	1295	84.6	0
56	1295	84.7	0
56	1295	84.8	0
56	1295	84.9	0
56	1295	85	0
56	1295	85.1	0
56	1295	85.2	0
56	1295	85.3	0
56	1295	85.4	0
56	1295	85.5	0
56	1295	85.6	0
56	1295	85.7	0
56	1295	85.8	0
56	1295	85.9	0
56	1295	86	0
56	1295	86.1	0
56	1295	86.2	0
56	1295	86.3	0
56	1295	86.4	0
56	1295	86.5	0
56	1295	86.6	0
56	1295	86.7	0
56	1295	86.8	0
56	1295	86.9	0
56	1295	87	0
56	1295	87.1	0
56	1295	87.2	0
56	1295	87.3	0
56	1295	87.4	0
56	1295	87.5	0
56	1295	87.6	0
56	1295	87.7	0
56	1295	87.8	0
56	1295	87.9	0
56	1295	88	0
56	1295	88.1	0
56	1295	88.2	0
56	1295	88.3	0
56	1295	88.4	0
56	1295	88.5	0
56	1295	88.6	0
56	1295	88.7	0
56	1295	88.8	0
56	1295	88.9	0
56	1295	89	0
56	1295	89.1	0
56	1295	89.2	0
56	1295	89.3	0
56	1295	89.4	0
56	1295	89.5	0
56	1295	89.6	0
56	1295	89.7	0
56	1295	89.8	0
56	1295	89.9	0
56	1295	90	0
56	1295	90.1	0
56	1295	90.2	0
56	1295	90.3	0
56	1295	90.4	0
56	1295	90.5	0
56	1295	90.6	0
56	1295	90.7	0
56	1295	90.8	0
56	1295	90.9	0
56	1295	91	0
56	1295	91.1	0
56	1295	91.2	0
56	1295	91.3	0
56	1295	91.4	0
56	1295	91.5	0
56	1295	91.6	0
56	1295	91.7	0
56	1295	91.8	0
56	1295	91.9	0
56	1295	92	0
56	1295	92.1	0
56	1295	92.2	0
56	1295	92.3	0
56	1295	92.4	0
56	1295	92.5	0
56	1295	92.6	0
56	1295	92.7	0
56	1295	92.8	0
56	1295	92.9	0
56	1295	93	0
56	1295	93.1	0
56	1295	93.2	0
56	1295	93.3	0
56	1295	93.4	0
56	1295	93.5	0
56	1295	93.6	0
56	1295	93.7	0
56	1295	93.8	0
56	1295	93.9	0
56	1295	94	0
56	1295	94.1	0
56	1295	94.2	0
56	1295	94.3	0
56	1295	94.4	0
56	1295	94.5	0
56	1295	94.6	0
56	1295	94.7	0
56	1295	94.8	0
56	1295	94.9	0
56	1295	95	0
56	1295	95.1	0
56	1295	95.2	0
56	1295	95.3	0
56	1295	95.4	0
56	1295	95.5	0
56	1295	95.6	0
56	1295	95.7	0
56	1295	95.8	0
56	1295	95.9	0
56	1295	96	0
56	1295	96.1	0
56	1295	96.2	0
56	1295	96.3	0
56	1295	96.4	0
56	1295	96.5	0
56	1295	96.6	0
56	1295	96.7	0
56	1295	96.8	0
56	1295	96.9	0
56	1295	97	0
56	1295	97.1	0
56	1295	97.2	0
56	1295	97.3	0
56	1295	97.4	0
56	1295	97.5	0
56	1295	97.6	0
56	1295	97.7	0
56	1295	97.8	0
56	1295	97.9	0
56	1295	98	0
56	1295	98.1	0
56	1295	98.2	0
56	1295	98.3	0
56	1295	98.4	0
56	1295	98.5	0
56	1295	98.6	0
56	1295	98.7	0
56	1295	98.8	0
56	1295	98.9	0
56	1295	99	0
56	1295	99.1	0
56	1295	99.2	0
56	1295	99.3	0
56	1295	99.4	0
56	1295	99.5	0
56	1295	99.6	0
56	1295	99.7	0
56	1295	99.8	0
56	1295	99.9	0
56	1295	100	0
56	1295	100.1	0
56	1295	100.2	0
56	1295	100.3	0
56	1295	100.4	0
56	1295	100.5	0
56	1295	100.6	0
56	1295	100.7	0
56	1295	100.8	0
56	1295	100.9	0
56	1295	101	0
56	1295	101.1	0
56	1295	101.2	0
56	1295	101.3	0
56	1295	101.4	0
56	1295	101.5	0
56	1295	101.6	0
56	1295	101.7	0
56	1295	101.8	0
56	1295	101.9	0
56	1295	102	0
56	1295	102.1	0
56	1295	102.2	0
56	1295	102.3	0
56	1295	102.4	0
56	1295	102.5	0
56	1295	102.6	0
56	1295	102.7	0
56	1295	102.8	0
56	1295	102.9	0
56	1295	103	0
56	1295	103.1	0
56	1295	103.2	0
56	1295	103.3	0
56	1295	103.4	0
56	1295	103.5	0
56	1295	103.6	0
56	1295	103.7	0
56	1295	103.8	0
56	1295	103.9	0
56	1295	104	0
56	1295	104.1	0
56	1295	104.2	0
56	1295	104.3	0
56	1295	104.4	0
56	1295	104.5	0
56	1295	104.6	0
56	1295	104.7	0
56	1295	104.8	0
56	1295	104.9	0
56	1295	105	0
56	1295	105.1	0
56	1295	105.2	0
56	1295	105.3	0
56	1295	105.4	0
56	1295	105.5	0
56	1295	105.6	0
56	1295	105.7	0
56	1295	105.8	0
56	1295	105.9	0
56	1295	106	0
56	1295	106.1	0
56	1295	106.2	0
56	1295	106.3	0
56	1295	106.4	0
56	1295	106.5	0
56	1295	106.6	0
56	1295	106.7	0
56	1295	106.8	0
56	1295	106.9	0
56	1295	107	0
56	1295	107.1	0
56	1295	107.2	0
56	1295	107.3	0
56	1295	107.4	0
56	1295	107.5	0
56	1295	107.6	0
56	1295	107.7	0
56	1295	107.8	0
56	1295	107.9	0
56	1295	108	0
56	1295	108.1	0
56	1295	108.2	0
56	1295	108.3	0
56	1295	108.4	0
56	1295	108.5	0
56	1295	108.6	0
56	1295	108.7	0
56	1295	108.8	0
56	1295	108.9	0
56	1295	109	0
56	1295	109.1	0
56	1295	109.2	0
56	1295	109.3	0
56	1295	109.4	0
56	1295	109.5	0
56	1295	109.6	0
56	1295	109.7	0
56	1295	109.8	0
56	1295	109.9	0
56	1295	110	0
56	1295	110.1	0
56	1295	110.2	0
56	1295	110.3	0
56	1295	110.4	0
56	1295	110.5	0
56	1295	110.6	0
56	1295	110.7	0
56	1295	110.8	0
56	1295	110.9	0
56	1295	111	0
56	1295	111.1	0
56	1295	111.2	0
56	1295	111.3	0
56	1295	111.4	0
56	1295	111.5	0
56	1295	111.6	0
56	1295	111.7	0
56	1295	111.8	0
56	1295	111.9	0
56	1295	112	0
56	1295	112.1	0
56	1295	112.2	0
56	1295	112.3	0
56	1295	112.4	0
56	1295	112.5	0
56	1295	112.6	0
56	1295	112.7	0
56	1295	112.8	0
56	1295	112.9	0
56	1295	113	0
56	1295	113.1	0
56	1295	113.2	0
56	1295	113.3	0
56	1295	113.4	0
56	1295	113.5	0
56	1295	113.6	0
56	1295	113.7	0
56	1295	113.8	0
56	1295	113.9	0
56	1295	114	0
56	1295	114.1	0
56	1295	114.2	0
56	1295	114.3	0
56	1295	114.4	0
56	1295	114.5	0
56	1295	114.6	0
56	1295	114.7	0
56	1295	114.8	0
56	1295	114.9	0
56	1295	115	0
56	1295	115.1	0
56	1295	115.2	0
56	1295	115.3	0
56	1295	115.4	0
56	1295	115.5	0
56	1295	115.6	0
56	1295	115.7	0
56	1295	115.8	0
56	1295	115.9	0
56	1295	116	0
56	1295	116.1	0
56	1295	116.2	0
56	1295	116.3	0
56	1295	116.4	0
56	1295	116.5	0
56	1295	116.6	0
56	1295	116.7	0
56	1295	116.8	0
56	1295	116.9	0
56	1295	117	0
56	1295	117.1	0
56	1295	117.2	0
56	1295	117.3	0
56	1295	117.4	0
56	1295	117.5	0
56	1295	117.6	0
56	1295	117.7	0
56	1295	117.8	0
56	1295	117.9	0
56	1295	118	0
56	1295	118.1	0
55	757	71.000152351245	100
55	765	71.000152351245	100
55	786	71.000375351245	100
57	757	71.000152351245	100
26	727	71	128
26	735	71	128
27	727	71	128
27	735	71	128
77	803	71.00065070249	158
41	742	71	158
41	771	71.000223	158
28	730	71	130
28	738	71	130
81	803	71.00065070249	130
80	803	71.00065070249	158
79	803	71.00065070249	158
78	803	71.00065070249	158
46	750	71.000152	158
46	779	71.000375	158
45	750	71.000152	158
45	779	71.000375	158
44	750	71.000152	158
44	779	71.000375	158
42	742	71	1
42	750	71.000152	0
42	771	71.000223	1
42	779	71.000375	0
40	742	71	12000000
40	771	71.000223	12000000
38	742	71	0
38	742	71	0
37	742	71	158
37	742	71	158
29	730	71	158
29	738	71	158
30	730	71	1
30	738	71	2
30	742	71	1
30	742	71	0
47	750	71.000152	0.000152
47	779	71.000375	0.000375
39	742	71	1
39	742	71	2
39	750	71.000152	1
39	779	71.000375	0
32	730	71	1
32	741	71	0
32	751	71.000152	1
32	770	71.000223	0
31	730	71	10
31	750	71.000152	1
11	12	1.1	15
43	743	71	1
43	744	71	2
43	750	71.000152	1
43	751	71.000152	0
43	772	71.000223	1
43	773	71.000223	2
43	779	71.000375	1
43	780	71.000375	0
10	12	1.1	1
10	743	71	0
10	751	71.000152	1
10	772	71.000223	0
10	780	71.000375	1
10	795	71.00049870249	3
10	802	71.00065070249	1
8	12	1.1	0
8	12	1.1	0
8	12	1.1	2
8	743	71	3
8	751	71.000152	2
8	772	71.000223	3
8	780	71.000375	2
9	12	1.1	3
33	731	71	108
33	739	71	108
33	806	71.00065070249	108
25	725	71	108
25	733	71	108
34	731	71	1
34	739	71	2
34	806	71.00065070249	3
36	732	0.1	0
36	732	0.2	0
36	732	0.3	0
36	732	0.4	0
36	732	0.5	0
36	732	0.6	0
36	732	0.7	0
36	732	0.8	0
36	732	0.9	0
36	732	1	0
36	732	1.1	0
36	732	1.2	0
36	732	1.3	0
36	732	1.4	0
36	732	1.5	0
36	732	1.6	0
36	732	1.7	0
36	732	1.8	0
36	732	1.9	0
36	732	2	0
36	732	2.1	0
36	732	2.2	0
36	732	2.3	0
36	732	2.4	0
36	732	2.5	0
36	732	2.6	0
36	732	2.7	0
36	732	2.8	0
36	732	2.9	0
36	732	3	0
36	732	3.1	0
36	732	3.2	0
36	732	3.3	0
36	732	3.4	0
36	732	3.5	0
36	732	3.6	0
36	732	3.7	0
36	732	3.8	0
36	732	3.9	0
36	732	4	0
36	732	4.1	0
36	732	4.2	0
36	732	4.3	0
36	732	4.4	0
36	732	4.5	0
36	732	4.6	0
36	732	4.7	0
36	732	4.8	0
36	732	4.9	0
36	732	5	0
36	732	5.1	0
36	732	5.2	0
36	732	5.3	0
36	732	5.4	0
36	732	5.5	0
36	732	5.6	0
36	732	5.7	0
36	732	5.8	0
36	732	5.9	0
36	732	6	0
36	732	6.1	0
36	732	6.2	0
36	732	6.3	0
36	732	6.4	0
36	732	6.5	0
36	732	6.6	0
36	732	6.7	0
36	732	6.8	0
36	732	6.9	0
36	732	7	0
36	732	7.1	0
36	732	7.2	0
36	732	7.3	0
36	732	7.4	0
36	732	7.5	0
36	732	7.6	0
36	732	7.7	0
36	732	7.8	0
36	732	7.9	0
36	732	8	0
36	732	8.1	0
36	732	8.2	0
36	732	8.3	0
36	732	8.4	0
36	732	8.5	0
36	732	8.6	0
36	732	8.7	0
36	732	8.8	0
36	732	8.9	0
36	732	9	0
36	732	9.1	0
36	732	9.2	0
36	732	9.3	0
36	732	9.4	0
36	732	9.5	0
36	732	9.6	0
36	732	9.7	0
36	732	9.8	0
36	732	9.9	0
36	732	10	0
36	732	10.1	0
36	732	10.2	0
36	732	10.3	0
36	732	10.4	0
36	732	10.5	0
36	732	10.6	0
36	732	10.7	0
36	732	10.8	0
36	732	10.9	0
36	732	11	0
36	732	11.1	0
36	732	11.2	0
36	732	11.3	0
36	732	11.4	0
36	732	11.5	0
36	732	11.6	0
36	732	11.7	0
36	732	11.8	0
36	732	11.9	0
36	732	12	0
36	732	12.1	0
36	732	12.2	0
36	732	12.3	0
36	732	12.4	0
36	732	12.5	0
36	732	12.6	0
36	732	12.7	0
36	732	12.8	0
36	732	12.9	0
36	732	13	0
36	732	13.1	0
36	732	13.2	0
36	732	13.3	0
36	732	13.4	0
36	732	13.5	0
36	732	13.6	0
36	732	13.7	0
36	732	13.8	0
36	732	13.9	0
36	732	14	0
36	732	14.1	0
36	732	14.2	0
36	732	14.3	0
36	732	14.4	0
36	732	14.5	0
36	732	14.6	0
36	732	14.7	0
36	732	14.8	0
36	732	14.9	0
36	732	15	0
36	732	15.1	0
36	732	15.2	0
36	732	15.3	0
36	732	15.4	0
36	732	15.5	0
36	732	15.6	0
36	732	15.7	0
36	732	15.8	0
36	732	15.9	0
36	732	16	0
36	732	16.1	0
36	732	16.2	0
36	732	16.3	0
36	732	16.4	0
36	732	16.5	0
36	732	16.6	0
36	732	16.7	0
36	732	16.8	0
36	732	16.9	0
36	732	17	0
36	732	17.1	0
36	732	17.2	0
36	732	17.3	0
36	732	17.4	0
36	732	17.5	0
36	732	17.6	0
36	732	17.7	0
36	732	17.8	0
36	732	17.9	0
36	732	18	0
36	732	18.1	0
36	732	18.2	0
36	732	18.3	0
36	732	18.4	0
36	732	18.5	0
36	732	18.6	0
36	732	18.7	0
36	732	18.8	0
36	732	18.9	0
36	732	19	0
36	732	19.1	0
36	732	19.2	0
36	732	19.3	0
36	732	19.4	0
36	732	19.5	0
36	732	19.6	0
36	732	19.7	0
36	732	19.8	0
36	732	19.9	0
36	732	20	0
36	732	20.1	0
36	732	20.2	0
36	732	20.3	0
36	732	20.4	0
36	732	20.5	0
36	732	20.6	0
36	732	20.7	0
36	732	20.8	0
36	732	20.9	0
36	732	21	0
36	732	21.1	0
36	732	21.2	0
36	732	21.3	0
36	732	21.4	0
36	732	21.5	0
36	732	21.6	0
36	732	21.7	0
36	732	21.8	0
36	732	21.9	0
36	732	22	0
36	732	22.1	0
36	732	22.2	0
36	732	22.3	0
36	732	22.4	0
36	732	22.5	0
36	732	22.6	0
36	732	22.7	0
36	732	22.8	0
36	732	22.9	0
36	732	23	0
36	732	23.1	0
36	732	23.2	0
36	732	23.3	0
36	732	23.4	0
36	732	23.5	0
36	732	23.6	0
36	732	23.7	0
36	732	23.8	0
36	732	23.9	0
36	732	24	0
36	732	24.1	0
36	732	24.2	0
36	732	24.3	0
36	732	24.4	0
36	732	24.5	0
36	732	24.6	0
36	732	24.7	0
36	732	24.8	0
36	732	24.9	0
36	732	25	0
36	732	25.1	0
36	732	25.2	0
36	732	25.3	0
36	732	25.4	0
36	732	25.5	0
36	732	25.6	0
36	732	25.7	0
36	732	25.8	0
36	732	25.9	0
36	732	26	0
36	732	26.1	0
36	732	26.2	0
36	732	26.3	0
36	732	26.4	0
36	732	26.5	0
36	732	26.6	0
36	732	26.7	0
36	732	26.8	0
36	732	26.9	0
36	732	27	0
36	732	27.1	0
36	732	27.2	0
36	732	27.3	0
36	732	27.4	0
36	732	27.5	0
36	732	27.6	0
36	732	27.7	0
36	732	27.8	0
36	732	27.9	0
36	732	28	0
36	732	28.1	0
36	732	28.2	0
36	732	28.3	0
36	732	28.4	0
36	732	28.5	0
36	732	28.6	0
36	732	28.7	0
36	732	28.8	0
36	732	28.9	0
36	732	29	0
36	732	29.1	0
36	732	29.2	0
36	732	29.3	0
36	732	29.4	0
36	732	29.5	0
36	732	29.6	0
36	732	29.7	0
36	732	29.8	0
36	732	29.9	0
36	732	30	0
36	732	30.1	0
36	732	30.2	0
36	732	30.3	0
36	732	30.4	0
36	732	30.5	0
36	732	30.6	0
36	732	30.7	0
36	732	30.8	0
36	732	30.9	0
36	732	31	0
36	732	31.1	0
36	732	31.2	0
36	732	31.3	0
36	732	31.4	0
36	732	31.5	0
36	732	31.6	0
36	732	31.7	0
36	732	31.8	0
36	732	31.9	0
36	732	32	0
36	732	32.1	0
36	732	32.2	0
36	732	32.3	0
36	732	32.4	0
36	732	32.5	0
36	732	32.6	0
36	732	32.7	0
36	732	32.8	0
36	732	32.9	0
36	732	33	0
36	732	33.1	0
36	732	33.2	0
36	732	33.3	0
36	732	33.4	0
36	732	33.5	0
36	732	33.6	0
36	732	33.7	0
36	732	33.8	0
36	732	33.9	0
36	732	34	0
36	732	34.1	0
36	732	34.2	0
36	732	34.3	0
36	732	34.4	0
36	732	34.5	0
36	732	34.6	0
36	732	34.7	0
36	732	34.8	0
36	732	34.9	0
36	732	35	0
36	732	35.1	0
36	732	35.2	0
36	732	35.3	0
36	732	35.4	0
36	732	35.5	0
36	732	35.6	0
36	732	35.7	0
36	732	35.8	0
36	732	35.9	0
36	732	36	0
36	732	36.1	0
36	732	36.2	0
36	732	36.3	0
36	732	36.4	0
36	732	36.5	0
36	732	36.6	0
36	732	36.7	0
36	732	36.8	0
36	732	36.9	0
36	732	37	0
36	732	37.1	0
36	732	37.2	0
36	732	37.3	0
36	732	37.4	0
36	732	37.5	0
36	732	37.6	0
36	732	37.7	0
36	732	37.8	0
36	732	37.9	0
36	732	38	0
36	732	38.1	0
36	732	38.2	0
36	732	38.3	0
36	732	38.4	0
36	732	38.5	0
36	732	38.6	0
36	732	38.7	0
36	732	38.8	0
36	732	38.9	0
36	732	39	0
36	732	39.1	0
36	732	39.2	0
36	732	39.3	0
36	732	39.4	0
36	732	39.5	0
36	732	39.6	0
36	732	39.7	0
36	732	39.8	0
36	732	39.9	0
36	732	40	0
36	732	40.1	0
36	732	40.2	0
36	732	40.3	0
36	732	40.4	0
36	732	40.5	0
36	732	40.6	0
36	732	40.7	0
36	732	40.8	0
36	732	40.9	0
36	732	41	0
36	732	41.1	0
36	732	41.2	0
36	732	41.3	0
36	732	41.4	0
36	732	41.5	0
36	732	41.6	0
36	732	41.7	0
36	732	41.8	0
36	732	41.9	0
36	732	42	0
36	732	42.1	0
36	732	42.2	0
36	732	42.3	0
36	732	42.4	0
36	732	42.5	0
36	732	42.6	0
36	732	42.7	0
36	732	42.8	0
36	732	42.9	0
36	732	43	0
36	732	43.1	0
36	732	43.2	0
36	732	43.3	0
36	732	43.4	0
36	732	43.5	0
36	732	43.6	0
36	732	43.7	0
36	732	43.8	0
36	732	43.9	0
36	732	44	0
36	732	44.1	0
36	732	44.2	0
36	732	44.3	0
36	732	44.4	0
36	732	44.5	0
36	732	44.6	0
36	732	44.7	0
36	732	44.8	0
36	732	44.9	0
36	732	45	0
36	732	45.1	0
36	732	45.2	0
36	732	45.3	0
36	732	45.4	0
36	732	45.5	0
36	732	45.6	0
36	732	45.7	0
36	732	45.8	0
36	732	45.9	0
36	732	46	0
36	732	46.1	0
36	732	46.2	0
36	732	46.3	0
36	732	46.4	0
36	732	46.5	0
36	732	46.6	0
36	732	46.7	0
36	732	46.8	0
36	732	46.9	0
36	732	47	0
36	732	47.1	0
36	732	47.2	0
36	732	47.3	0
36	732	47.4	0
36	732	47.5	0
36	732	47.6	0
36	732	47.7	0
36	732	47.8	0
36	732	47.9	0
36	732	48	0
36	732	48.1	0
36	732	48.2	0
36	732	48.3	0
36	732	48.4	0
36	732	48.5	0
36	732	48.6	0
36	732	48.7	0
36	732	48.8	0
36	732	48.9	0
36	732	49	0
36	732	49.1	0
36	732	49.2	0
36	732	49.3	0
36	732	49.4	0
36	732	49.5	0
36	732	49.6	0
36	732	49.7	0
36	732	49.8	0
36	732	49.9	0
36	732	50	0
36	732	50.1	0
36	732	50.2	0
36	732	50.3	0
36	732	50.4	0
36	732	50.5	0
36	732	50.6	0
36	732	50.7	0
36	732	50.8	0
36	732	50.9	0
36	732	51	0
36	732	51.1	0
36	732	51.2	0
36	732	51.3	0
36	732	51.4	0
36	732	51.5	0
36	732	51.6	0
36	732	51.7	0
36	732	51.8	0
36	732	51.9	0
36	732	52	0
36	732	52.1	0
36	732	52.2	0
36	732	52.3	0
36	732	52.4	0
36	732	52.5	0
36	732	52.6	0
36	732	52.7	0
36	732	52.8	0
36	732	52.9	0
36	732	53	0
36	732	53.1	0
36	732	53.2	0
36	732	53.3	0
36	732	53.4	0
36	732	53.5	0
36	732	53.6	0
36	732	53.7	0
36	732	53.8	0
36	732	53.9	0
36	732	54	0
36	732	54.1	0
36	732	54.2	0
36	732	54.3	0
36	732	54.4	0
36	732	54.5	0
36	732	54.6	0
36	732	54.7	0
36	732	54.8	0
36	732	54.9	0
36	732	55	0
36	732	55.1	0
36	732	55.2	0
36	732	55.3	0
36	732	55.4	0
36	732	55.5	0
36	732	55.6	0
36	732	55.7	0
36	732	55.8	0
36	732	55.9	0
36	732	56	0
36	732	56.1	0
36	732	56.2	0
36	732	56.3	0
36	732	56.4	0
36	732	56.5	0
36	732	56.6	0
36	732	56.7	0
36	732	56.8	0
36	732	56.9	0
36	732	57	0
36	732	57.1	0
36	732	57.2	0
36	732	57.3	0
36	732	57.4	0
36	732	57.5	0
36	732	57.6	0
36	732	57.7	0
36	732	57.8	0
36	732	57.9	0
36	732	58	0
36	732	58.1	0
36	732	58.2	0
36	732	58.3	0
36	732	58.4	0
36	732	58.5	0
36	732	58.6	0
36	732	58.7	0
36	732	58.8	0
36	732	58.9	0
36	732	59	0
36	732	59.1	0
36	732	59.2	0
36	732	59.3	0
36	732	59.4	0
36	732	59.5	0
36	732	59.6	0
36	732	59.7	0
36	732	59.8	0
36	732	59.9	0
36	732	60	0
36	732	60.1	0
36	732	60.2	0
36	732	60.3	0
36	732	60.4	0
36	732	60.5	0
36	732	60.6	0
36	732	60.7	0
36	732	60.8	0
36	732	60.9	0
36	732	61	0
36	732	61.1	0
36	732	61.2	0
36	732	61.3	0
36	732	61.4	0
36	732	61.5	0
36	732	61.6	0
36	732	61.7	0
36	732	61.8	0
36	732	61.9	0
36	732	62	0
36	732	62.1	0
36	732	62.2	0
36	732	62.3	0
36	732	62.4	0
36	732	62.5	0
36	732	62.6	0
36	732	62.7	0
36	732	62.8	0
36	732	62.9	0
36	732	63	0
36	732	63.1	0
36	732	63.2	0
36	732	63.3	0
36	732	63.4	0
36	732	63.5	0
36	732	63.6	0
36	732	63.7	0
36	732	63.8	0
36	732	63.9	0
36	732	64	0
36	732	64.1	0
36	732	64.2	0
36	732	64.3	0
36	732	64.4	0
36	732	64.5	0
36	732	64.6	0
36	732	64.7	0
36	732	64.8	0
36	732	64.9	0
36	732	65	0
36	732	65.1	0
36	732	65.2	0
36	732	65.3	0
36	732	65.4	0
36	732	65.5	0
36	732	65.6	0
36	732	65.7	0
36	732	65.8	0
36	732	65.9	0
36	732	66	0
36	732	66.1	0
36	732	66.2	0
36	732	66.3	0
36	732	66.4	0
36	732	66.5	0
36	732	66.6	0
36	732	66.7	0
36	732	66.8	0
36	732	66.9	0
36	732	67	0
36	732	67.1	0
36	732	67.2	0
36	732	67.3	0
36	732	67.4	0
36	732	67.5	0
36	732	67.6	0
36	732	67.7	0
36	732	67.8	0
36	732	67.9	0
36	732	68	0
36	732	68.1	0
36	732	68.2	0
36	732	68.3	0
36	732	68.4	0
36	732	68.5	0
36	732	68.6	0
36	732	68.7	0
36	732	68.8	0
36	732	68.9	0
36	732	69	0
36	732	69.1	0
36	732	69.2	0
36	732	69.3	0
36	732	69.4	0
36	732	69.5	0
36	732	69.6	0
36	732	69.7	0
36	732	69.8	0
36	732	69.9	0
36	732	70	0
36	732	70.1	0
36	732	70.2	0
36	732	70.3	0
36	732	70.4	0
36	732	70.5	0
36	732	70.6	0
36	732	70.7	0
36	732	70.8	0
36	732	70.9	0
36	732	71	0
36	1665	71.1	24000
36	1665	71.2	0
36	1665	71.3	0
36	1665	71.4	0
36	1665	71.5	0
36	1665	71.6	0
36	1665	71.7	0
36	1665	71.8	0
36	1665	71.9	0
36	1665	72	0
36	1665	72.1	0
36	1665	72.2	0
36	1665	72.3	0
36	1665	72.4	0
36	1665	72.5	0
36	1665	72.6	0
36	1665	72.7	0
36	1665	72.8	0
36	1665	72.9	0
36	1665	73	0
36	1665	73.1	0
36	1665	73.2	0
36	1665	73.3	0
36	1665	73.4	0
36	1665	73.5	0
36	1665	73.6	0
36	1665	73.7	0
36	1665	73.8	0
36	1665	73.9	0
36	1665	74	0
36	1665	74.1	0
36	1665	74.2	0
36	1665	74.3	0
36	1665	74.4	0
36	1665	74.5	0
36	1665	74.6	0
36	1665	74.7	0
36	1665	74.8	0
36	1665	74.9	0
36	1665	75	0
36	1665	75.1	0
36	1665	75.2	0
36	1665	75.3	0
36	1665	75.4	0
36	1665	75.5	0
36	1665	75.6	0
36	1665	75.7	0
36	1665	75.8	0
36	1665	75.9	0
36	1665	76	0
36	1665	76.1	0
36	1665	76.2	0
36	1665	76.3	0
36	1665	76.4	0
36	1665	76.5	0
36	1665	76.6	0
36	1665	76.7	0
36	1665	76.8	0
36	1665	76.9	0
36	1665	77	0
36	1665	77.1	0
36	1665	77.2	0
36	1665	77.3	0
36	1665	77.4	0
36	1665	77.5	0
36	1665	77.6	0
36	1665	77.7	0
36	1665	77.8	0
36	1665	77.9	0
36	1665	78	0
36	1665	78.1	0
36	1665	78.2	0
36	1665	78.3	0
36	1665	78.4	0
36	1665	78.5	0
36	1665	78.6	0
36	1665	78.7	0
36	1665	78.8	0
36	1665	78.9	0
36	1665	79	0
36	1665	79.1	0
36	1665	79.2	0
36	1665	79.3	0
36	1665	79.4	0
36	1665	79.5	0
36	1665	79.6	0
36	1665	79.7	0
36	1665	79.8	0
36	1665	79.9	0
36	1665	80	0
36	1665	80.1	0
36	1665	80.2	0
36	1665	80.3	0
36	1665	80.4	0
36	1665	80.5	0
36	1665	80.6	0
36	1665	80.7	0
36	1665	80.8	0
36	1665	80.9	0
36	1665	81	0
36	1665	81.1	0
36	1665	81.2	0
36	1665	81.3	0
36	1665	81.4	0
36	1665	81.5	0
36	1665	81.6	0
36	1665	81.7	0
36	1665	81.8	0
36	1665	81.9	0
36	1665	82	0
36	1665	82.1	0
36	1665	82.2	0
36	1665	82.3	0
36	1665	82.4	0
36	1665	82.5	0
36	1665	82.6	0
36	1665	82.7	0
36	1665	82.8	0
36	1665	82.9	0
36	1665	83	0
36	1665	83.1	0
36	1665	83.2	0
36	1665	83.3	0
36	1665	83.4	0
36	1665	83.5	0
36	1665	83.6	0
36	1665	83.7	0
36	1665	83.8	0
36	1665	83.9	0
36	1665	84	0
36	1665	84.1	0
36	1665	84.2	0
36	1665	84.3	0
36	1665	84.4	0
36	1665	84.5	0
36	1665	84.6	0
36	1665	84.7	0
36	1665	84.8	0
36	1665	84.9	0
36	1665	85	0
36	1665	85.1	0
36	1665	85.2	0
36	1665	85.3	0
36	1665	85.4	0
36	1665	85.5	0
36	1665	85.6	0
36	1665	85.7	0
36	1665	85.8	0
36	1665	85.9	0
36	1665	86	0
36	1665	86.1	0
36	1665	86.2	0
36	1665	86.3	0
36	1665	86.4	0
36	1665	86.5	0
36	1665	86.6	0
36	1665	86.7	0
36	1665	86.8	0
36	1665	86.9	0
36	1665	87	0
36	1665	87.1	0
36	1665	87.2	0
36	1665	87.3	0
36	1665	87.4	0
36	1665	87.5	0
36	1665	87.6	0
36	1665	87.7	0
36	1665	87.8	0
36	1665	87.9	0
36	1665	88	0
36	1665	88.1	0
36	1665	88.2	0
36	1665	88.3	0
36	1665	88.4	0
36	1665	88.5	0
36	1665	88.6	0
36	1665	88.7	0
36	1665	88.8	0
36	1665	88.9	0
36	1665	89	0
36	1665	89.1	0
36	1665	89.2	0
36	1665	89.3	0
36	1665	89.4	0
36	1665	89.5	0
36	1665	89.6	0
36	1665	89.7	0
36	1665	89.8	0
36	1665	89.9	0
36	1665	90	0
36	1665	90.1	0
36	1665	90.2	0
36	1665	90.3	0
36	1665	90.4	0
36	1665	90.5	0
36	1665	90.6	0
36	1665	90.7	0
36	1665	90.8	0
36	1665	90.9	0
36	1665	91	0
36	1665	91.1	0
36	1665	91.2	0
36	1665	91.3	0
36	1665	91.4	0
36	1665	91.5	0
36	1665	91.6	0
36	1665	91.7	0
36	1665	91.8	0
36	1665	91.9	0
36	1665	92	0
36	1665	92.1	0
36	1665	92.2	0
36	1665	92.3	0
36	1665	92.4	0
36	1665	92.5	0
36	1665	92.6	0
36	1665	92.7	0
36	1665	92.8	0
36	1665	92.9	0
36	1665	93	0
36	1665	93.1	0
36	1665	93.2	0
36	1665	93.3	0
36	1665	93.4	0
36	1665	93.5	0
36	1665	93.6	0
36	1665	93.7	0
36	1665	93.8	0
36	1665	93.9	0
36	1665	94	0
36	1665	94.1	0
36	1665	94.2	0
36	1665	94.3	0
36	1665	94.4	0
36	1665	94.5	0
36	1665	94.6	0
36	1665	94.7	0
36	1665	94.8	0
36	1665	94.9	0
36	1665	95	0
36	1665	95.1	0
36	1665	95.2	0
36	1665	95.3	0
36	1665	95.4	0
36	1665	95.5	0
36	1665	95.6	0
36	1665	95.7	0
36	1665	95.8	0
36	1665	95.9	0
36	1665	96	0
36	1665	96.1	0
36	1665	96.2	0
36	1665	96.3	0
36	1665	96.4	0
36	1665	96.5	0
36	1665	96.6	0
36	1665	96.7	0
36	1665	96.8	0
36	1665	96.9	0
36	1665	97	0
36	1665	97.1	0
36	1665	97.2	0
36	1665	97.3	0
36	1665	97.4	0
36	1665	97.5	0
36	1665	97.6	0
36	1665	97.7	0
36	1665	97.8	0
36	1665	97.9	0
36	1665	98	0
36	1665	98.1	0
36	1665	98.2	0
36	1665	98.3	0
36	1665	98.4	0
36	1665	98.5	0
36	1665	98.6	0
36	1665	98.7	0
36	1665	98.8	0
36	1665	98.9	0
36	1665	99	0
36	1665	99.1	0
36	1665	99.2	0
36	1665	99.3	0
36	1665	99.4	0
36	1665	99.5	0
36	1665	99.6	0
36	1665	99.7	0
36	1665	99.8	0
36	1665	99.9	0
36	1665	100	0
36	1665	100.1	0
36	1665	100.2	0
36	1665	100.3	0
36	1665	100.4	0
36	1665	100.5	0
36	1665	100.6	0
36	1665	100.7	0
36	1665	100.8	0
36	1665	100.9	0
36	1665	101	0
36	1665	101.1	0
36	1665	101.2	0
36	1665	101.3	0
36	1665	101.4	0
36	1665	101.5	0
36	1665	101.6	0
36	1665	101.7	0
36	1665	101.8	0
36	1665	101.9	0
36	1665	102	0
36	1665	102.1	0
36	1665	102.2	0
36	1665	102.3	0
36	1665	102.4	0
36	1665	102.5	0
36	1665	102.6	0
36	1665	102.7	0
36	1665	102.8	0
36	1665	102.9	0
36	1665	103	0
36	1665	103.1	0
36	1665	103.2	0
36	1665	103.3	0
36	1665	103.4	0
36	1665	103.5	0
36	1665	103.6	0
36	1665	103.7	0
36	1665	103.8	0
36	1665	103.9	0
36	1665	104	0
36	1665	104.1	0
36	1665	104.2	0
36	1665	104.3	0
36	1665	104.4	0
36	1665	104.5	0
36	1665	104.6	0
36	1665	104.7	0
36	1665	104.8	0
36	1665	104.9	0
36	1665	105	0
36	1665	105.1	0
36	1665	105.2	0
36	1665	105.3	0
36	1665	105.4	0
36	1665	105.5	0
36	1665	105.6	0
36	1665	105.7	0
36	1665	105.8	0
36	1665	105.9	0
36	1665	106	0
36	1665	106.1	0
36	1665	106.2	0
36	1665	106.3	0
36	1665	106.4	0
36	1665	106.5	0
36	1665	106.6	0
36	1665	106.7	0
36	1665	106.8	0
36	1665	106.9	0
36	1665	107	0
36	1665	107.1	0
36	1665	107.2	0
36	1665	107.3	0
36	1665	107.4	0
36	1665	107.5	0
36	1665	107.6	0
36	1665	107.7	0
36	1665	107.8	0
36	1665	107.9	0
36	1665	108	0
36	1665	108.1	0
36	1665	108.2	0
36	1665	108.3	0
36	1665	108.4	0
36	1665	108.5	0
36	1665	108.6	0
36	1665	108.7	0
36	1665	108.8	0
36	1665	108.9	0
36	1665	109	0
36	1665	109.1	0
36	1665	109.2	0
36	1665	109.3	0
36	1665	109.4	0
36	1665	109.5	0
36	1665	109.6	0
36	1665	109.7	0
36	1665	109.8	0
36	1665	109.9	0
36	1665	110	0
36	1665	110.1	0
36	1665	110.2	0
36	1665	110.3	0
36	1665	110.4	0
36	1665	110.5	0
36	1665	110.6	0
36	1665	110.7	0
36	1665	110.8	0
36	1665	110.9	0
36	1665	111	0
36	1665	111.1	0
36	1665	111.2	0
36	1665	111.3	0
36	1665	111.4	0
36	1665	111.5	0
36	1665	111.6	0
36	1665	111.7	0
36	1665	111.8	0
36	1665	111.9	0
36	1665	112	0
36	1665	112.1	0
36	1665	112.2	0
36	1665	112.3	0
36	1665	112.4	0
36	1665	112.5	0
36	1665	112.6	0
36	1665	112.7	0
36	1665	112.8	0
36	1665	112.9	0
36	1665	113	0
36	1665	113.1	0
36	1665	113.2	0
36	1665	113.3	0
36	1665	113.4	0
36	1665	113.5	0
36	1665	113.6	0
36	1665	113.7	0
36	1665	113.8	0
36	1665	113.9	0
36	1665	114	0
36	1665	114.1	0
36	1665	114.2	0
36	1665	114.3	0
36	1665	114.4	0
36	1665	114.5	0
36	1665	114.6	0
36	1665	114.7	0
36	1665	114.8	0
36	1665	114.9	0
36	1665	115	0
36	1665	115.1	0
36	1665	115.2	0
36	1665	115.3	0
36	1665	115.4	0
36	1665	115.5	0
36	1665	115.6	0
36	1665	115.7	0
36	1665	115.8	0
36	1665	115.9	0
36	1665	116	0
36	1665	116.1	0
36	1665	116.2	0
36	1665	116.3	0
36	1665	116.4	0
36	1665	116.5	0
36	1665	116.6	0
36	1665	116.7	0
36	1665	116.8	0
36	1665	116.9	0
36	1665	117	0
36	1665	117.1	0
36	1665	117.2	0
36	1665	117.3	0
36	1665	117.4	0
36	1665	117.5	0
36	1665	117.6	0
36	1665	117.7	0
36	1665	117.8	0
36	1665	117.9	0
36	1665	118	0
36	1665	118.1	0
36	1665	118.2	0
36	1665	118.3	0
36	1665	118.4	0
36	1665	118.5	0
36	1665	118.6	0
36	1665	118.7	0
36	1665	118.8	0
36	1665	118.9	0
36	1665	119	0
36	1665	119.1	0
36	1665	119.2	0
36	1665	119.3	0
36	1665	119.4	0
36	1665	119.5	0
36	1665	119.6	0
36	1665	119.7	0
36	1665	119.8	0
36	1665	119.9	0
36	1665	120	0
36	1665	120.1	0
36	1665	120.2	0
36	1665	120.3	0
36	1665	120.4	0
36	1665	120.5	0
36	1665	120.6	0
36	1665	120.7	0
36	1665	120.8	0
36	1665	120.9	0
36	1665	121	0
36	1665	121.1	0
36	1665	121.2	0
36	1665	121.3	0
36	1665	121.4	0
36	1665	121.5	0
36	1665	121.6	0
36	1665	121.7	0
36	1665	121.8	0
36	1665	121.9	0
36	1665	122	0
36	1665	122.1	0
36	1665	122.2	0
36	1665	122.3	0
36	1665	122.4	0
36	1665	122.5	0
36	1665	122.6	0
36	1665	122.7	0
36	1665	122.8	0
36	1665	122.9	0
36	1665	123	0
36	1665	123.1	0
36	1665	123.2	0
36	1665	123.3	0
36	1665	123.4	0
36	1665	123.5	0
36	1665	123.6	0
36	1665	123.7	0
36	1665	123.8	0
36	1665	123.9	0
36	1665	124	0
36	1665	124.1	0
36	1665	124.2	0
36	1665	124.3	0
36	1665	124.4	0
36	1665	124.5	0
36	1665	124.6	0
36	1665	124.7	0
36	1665	124.8	0
36	1665	124.9	0
36	1665	125	0
36	1665	125.1	0
36	1665	125.2	0
36	1665	125.3	0
36	1665	125.4	0
36	1665	125.5	0
36	1665	125.6	0
36	1665	125.7	0
36	1665	125.8	0
36	1665	125.9	0
36	1665	126	0
36	1665	126.1	0
36	1665	126.2	0
36	1665	126.3	0
36	1665	126.4	0
36	1665	126.5	0
36	1665	126.6	0
36	1665	126.7	0
36	1665	126.8	0
36	1665	126.9	0
36	1665	127	0
36	1665	127.1	0
36	1665	127.2	0
36	1665	127.3	0
36	1665	127.4	0
36	1665	127.5	0
36	1665	127.6	0
36	1665	127.7	0
36	1665	127.8	0
36	1665	127.9	0
36	1665	128	0
36	1665	128.1	0
36	1665	128.2	0
36	1665	128.3	0
36	1665	128.4	0
36	1665	128.5	0
36	1665	128.6	0
36	1665	128.7	0
36	1665	128.8	0
36	1665	128.9	0
36	1665	129	0
36	1665	129.1	0
36	1665	129.2	0
36	1665	129.3	0
36	1665	129.4	0
36	1665	129.5	0
36	1665	129.6	0
36	1665	129.7	0
36	1665	129.8	0
36	1665	129.9	0
36	1665	130	0
36	1665	130.1	0
36	1665	130.2	0
36	1665	130.3	0
36	1665	130.4	0
36	1665	130.5	0
36	1665	130.6	0
36	1665	130.7	0
36	1665	130.8	0
36	1665	130.9	0
36	1665	131	0
36	1665	131.1	0
36	1665	131.2	0
36	1665	131.3	0
36	1665	131.4	0
36	1665	131.5	0
36	1665	131.6	0
36	1665	131.7	0
36	1665	131.8	0
36	1665	131.9	0
36	1665	132	0
36	1665	132.1	0
36	1665	132.2	0
36	1665	132.3	0
36	1665	132.4	0
36	1665	132.5	0
36	1665	132.6	0
36	1665	132.7	0
36	1665	132.8	0
36	1665	132.9	0
36	1665	133	0
36	1665	133.1	0
36	1665	133.2	0
36	1665	133.3	0
36	1665	133.4	0
36	1665	133.5	0
36	1665	133.6	0
36	1665	133.7	0
36	1665	133.8	0
36	1665	133.9	0
36	1665	134	0
36	1665	134.1	0
36	1665	134.2	0
36	1665	134.3	0
36	1665	134.4	0
36	1665	134.5	0
36	1665	134.6	0
36	1665	134.7	0
36	1665	134.8	0
36	1665	134.9	0
36	1665	135	0
36	1665	135.1	0
36	1665	135.2	0
36	1665	135.3	0
36	1665	135.4	0
36	1665	135.5	0
36	1665	135.6	0
36	1665	135.7	0
36	1665	135.8	0
36	1665	135.9	0
36	1665	136	0
36	1665	136.1	0
36	1665	136.2	0
36	1665	136.3	0
36	1665	136.4	0
36	1665	136.5	0
36	1665	136.6	0
36	1665	136.7	0
36	1665	136.8	0
36	1665	136.9	0
36	1665	137	0
36	1665	137.1	0
36	1665	137.2	0
36	1665	137.3	0
36	1665	137.4	0
36	1665	137.5	0
36	1665	137.6	0
36	1665	137.7	0
36	1665	137.8	0
36	1665	137.9	0
36	1665	138	0
36	1665	138.1	0
36	1665	138.2	0
36	1665	138.3	0
36	1665	138.4	0
36	1665	138.5	0
36	1665	138.6	0
36	1665	138.7	0
36	1665	138.8	0
36	1665	138.9	0
36	1665	139	0
36	1665	139.1	0
36	1665	139.2	0
36	1665	139.3	0
36	1665	139.4	0
36	1665	139.5	0
36	1665	139.6	0
36	1665	139.7	0
36	1665	139.8	0
36	1665	139.9	0
36	1665	140	0
36	1665	140.1	0
36	1665	140.2	0
36	1665	140.3	0
36	1665	140.4	0
36	1665	140.5	0
36	1665	140.6	0
36	1665	140.7	0
36	1665	140.8	0
36	1665	140.9	0
36	1665	141	0
36	1665	141.1	0
36	1665	141.2	0
36	1665	141.3	0
36	1665	141.4	0
36	1665	141.5	0
36	1665	141.6	0
36	1665	141.7	0
36	1665	141.8	0
36	1665	141.9	0
36	1665	142	0
36	1665	142.1	0
36	1665	142.2	0
36	1665	142.3	0
36	1665	142.4	0
36	1665	142.5	0
36	1665	142.6	0
36	1665	142.7	0
36	1665	142.8	0
36	1665	142.9	0
36	1665	143	0
36	1665	143.1	0
36	1665	143.2	0
36	1665	143.3	0
36	1665	143.4	0
36	1665	143.5	0
36	1665	143.6	0
36	1665	143.7	0
36	1665	143.8	0
36	1665	143.9	0
36	1665	144	0
36	1665	144.1	0
36	1665	144.2	0
36	1665	144.3	0
36	1665	144.4	0
36	1665	144.5	0
36	1665	144.6	0
36	1665	144.7	0
36	1665	144.8	0
36	1665	144.9	0
36	1665	145	0
36	1665	145.1	0
36	1665	145.2	0
36	1665	145.3	0
36	1665	145.4	0
36	1665	145.5	0
36	1665	145.6	0
36	1665	145.7	0
36	1665	145.8	0
36	1665	145.9	0
36	1665	146	0
36	1665	146.1	0
36	1665	146.2	0
36	1665	146.3	0
36	1665	146.4	0
36	1665	146.5	0
36	1665	146.6	0
36	1665	146.7	0
36	1665	146.8	0
36	1665	146.9	0
36	1665	147	0
36	1665	147.1	0
36	1665	147.2	0
36	1665	147.3	0
36	1665	147.4	0
36	1665	147.5	0
36	1665	147.6	0
36	1665	147.7	0
36	1665	147.8	0
36	1665	147.9	0
36	1665	148	0
36	1665	148.1	0
36	1665	148.2	0
36	1665	148.3	0
36	1665	148.4	0
36	1665	148.5	0
36	1665	148.6	0
36	1665	148.7	0
36	1665	148.8	0
36	1665	148.9	0
36	1665	149	0
36	1665	149.1	0
36	1665	149.2	0
36	1665	149.3	0
36	1665	149.4	0
36	1665	149.5	0
36	1665	149.6	0
36	1665	149.7	0
36	1665	149.8	0
36	1665	149.9	0
36	1665	150	0
36	1665	150.1	0
36	1665	150.2	0
36	1665	150.3	0
36	1665	150.4	0
36	1665	150.5	0
36	1665	150.6	0
36	1665	150.7	0
36	1665	150.8	0
36	1665	150.9	0
36	1665	151	0
36	1665	151.1	0
36	1665	151.2	0
36	1665	151.3	0
36	1665	151.4	0
36	1665	151.5	0
36	1665	151.6	0
36	1665	151.7	0
36	1665	151.8	0
36	1665	151.9	0
36	1665	152	0
36	1665	152.1	0
36	1665	152.2	0
36	1665	152.3	0
36	1665	152.4	0
36	1665	152.5	0
36	1665	152.6	0
36	1665	152.7	0
36	1665	152.8	0
36	1665	152.9	0
36	1665	153	0
36	1665	153.1	0
36	1665	153.2	0
36	1665	153.3	0
36	1665	153.4	0
36	1665	153.5	0
36	1665	153.6	0
36	1665	153.7	0
36	1665	153.8	0
36	1665	153.9	0
36	1665	154	0
36	1665	154.1	0
36	1665	154.2	0
36	1665	154.3	0
36	1665	154.4	0
36	1665	154.5	0
36	1665	154.6	0
36	1665	154.7	0
36	1665	154.8	0
36	1665	154.9	0
36	1665	155	0
36	1665	155.1	0
35	732	71	100
35	740	71	100
35	807	71.00065070249	100
24	723	71	100
24	732	71	100
vector 94 Scenario.node[1].app[0] throughput:vector ETV
attr source throughput(packetReceived)
attr title "throughput, vector"
attr unit bps
15	25	2.1	15
14	25	2.1	1
12	25	2.1	0
12	25	2.1	0
12	25	2.1	2
13	25	2.1	3
94	1695	0.1	0
94	1695	0.2	0
94	1695	0.3	0
94	1695	0.4	0
94	1695	0.5	0
94	1695	0.6	0
94	1695	0.7	0
94	1695	0.8	0
94	1695	0.9	0
94	1695	1	0
94	1695	1.1	0
94	1695	1.2	0
94	1695	1.3	0
94	1695	1.4	0
94	1695	1.5	0
94	1695	1.6	0
94	1695	1.7	0
94	1695	1.8	0
94	1695	1.9	0
94	1695	2	0
94	1695	2.1	0
94	1695	2.2	0
94	1695	2.3	0
94	1695	2.4	0
94	1695	2.5	0
94	1695	2.6	0
94	1695	2.7	0
94	1695	2.8	0
94	1695	2.9	0
94	1695	3	0
94	1695	3.1	0
94	1695	3.2	0
94	1695	3.3	0
94	1695	3.4	0
94	1695	3.5	0
94	1695	3.6	0
94	1695	3.7	0
94	1695	3.8	0
94	1695	3.9	0
94	1695	4	0
94	1695	4.1	0
94	1695	4.2	0
94	1695	4.3	0
94	1695	4.4	0
94	1695	4.5	0
94	1695	4.6	0
94	1695	4.7	0
94	1695	4.8	0
94	1695	4.9	0
94	1695	5	0
94	1695	5.1	0
94	1695	5.2	0
94	1695	5.3	0
94	1695	5.4	0
94	1695	5.5	0
94	1695	5.6	0
94	1695	5.7	0
94	1695	5.8	0
94	1695	5.9	0
94	1695	6	0
94	1695	6.1	0
94	1695	6.2	0
94	1695	6.3	0
94	1695	6.4	0
94	1695	6.5	0
94	1695	6.6	0
94	1695	6.7	0
94	1695	6.8	0
94	1695	6.9	0
94	1695	7	0
94	1695	7.1	0
94	1695	7.2	0
94	1695	7.3	0
94	1695	7.4	0
94	1695	7.5	0
94	1695	7.6	0
94	1695	7.7	0
94	1695	7.8	0
94	1695	7.9	0
94	1695	8	0
94	1695	8.1	0
94	1695	8.2	0
94	1695	8.3	0
94	1695	8.4	0
94	1695	8.5	0
94	1695	8.6	0
94	1695	8.7	0
94	1695	8.8	0
94	1695	8.9	0
94	1695	9	0
94	1695	9.1	0
94	1695	9.2	0
94	1695	9.3	0
94	1695	9.4	0
94	1695	9.5	0
94	1695	9.6	0
94	1695	9.7	0
94	1695	9.8	0
94	1695	9.9	0
94	1695	10	0
94	1695	10.1	0
94	1695	10.2	0
94	1695	10.3	0
94	1695	10.4	0
94	1695	10.5	0
94	1695	10.6	0
94	1695	10.7	0
94	1695	10.8	0
94	1695	10.9	0
94	1695	11	0
94	1695	11.1	0
94	1695	11.2	0
94	1695	11.3	0
94	1695	11.4	0
94	1695	11.5	0
94	1695	11.6	0
94	1695	11.7	0
94	1695	11.8	0
94	1695	11.9	0
94	1695	12	0
94	1695	12.1	0
94	1695	12.2	0
94	1695	12.3	0
94	1695	12.4	0
94	1695	12.5	0
94	1695	12.6	0
94	1695	12.7	0
94	1695	12.8	0
94	1695	12.9	0
94	1695	13	0
94	1695	13.1	0
94	1695	13.2	0
94	1695	13.3	0
94	1695	13.4	0
94	1695	13.5	0
94	1695	13.6	0
94	1695	13.7	0
94	1695	13.8	0
94	1695	13.9	0
94	1695	14	0
94	1695	14.1	0
94	1695	14.2	0
94	1695	14.3	0
94	1695	14.4	0
94	1695	14.5	0
94	1695	14.6	0
94	1695	14.7	0
94	1695	14.8	0
94	1695	14.9	0
94	1695	15	0
94	1695	15.1	0
94	1695	15.2	0
94	1695	15.3	0
94	1695	15.4	0
94	1695	15.5	0
94	1695	15.6	0
94	1695	15.7	0
94	1695	15.8	0
94	1695	15.9	0
94	1695	16	0
94	1695	16.1	0
94	1695	16.2	0
94	1695	16.3	0
94	1695	16.4	0
94	1695	16.5	0
94	1695	16.6	0
94	1695	16.7	0
94	1695	16.8	0
94	1695	16.9	0
94	1695	17	0
94	1695	17.1	0
94	1695	17.2	0
94	1695	17.3	0
94	1695	17.4	0
94	1695	17.5	0
94	1695	17.6	0
94	1695	17.7	0
94	1695	17.8	0
94	1695	17.9	0
94	1695	18	0
94	1695	18.1	0
94	1695	18.2	0
94	1695	18.3	0
94	1695	18.4	0
94	1695	18.5	0
94	1695	18.6	0
94	1695	18.7	0
94	1695	18.8	0
94	1695	18.9	0
94	1695	19	0
94	1695	19.1	0
94	1695	19.2	0
94	1695	19.3	0
94	1695	19.4	0
94	1695	19.5	0
94	1695	19.6	0
94	1695	19.7	0
94	1695	19.8	0
94	1695	19.9	0
94	1695	20	0
94	1695	20.1	0
94	1695	20.2	0
94	1695	20.3	0
94	1695	20.4	0
94	1695	20.5	0
94	1695	20.6	0
94	1695	20.7	0
94	1695	20.8	0
94	1695	20.9	0
94	1695	21	0
94	1695	21.1	0
94	1695	21.2	0
94	1695	21.3	0
94	1695	21.4	0
94	1695	21.5	0
94	1695	21.6	0
94	1695	21.7	0
94	1695	21.8	0
94	1695	21.9	0
94	1695	22	0
94	1695	22.1	0
94	1695	22.2	0
94	1695	22.3	0
94	1695	22.4	0
94	1695	22.5	0
94	1695	22.6	0
94	1695	22.7	0
94	1695	22.8	0
94	1695	22.9	0
94	1695	23	0
94	1695	23.1	0
94	1695	23.2	0
94	1695	23.3	0
94	1695	23.4	0
94	1695	23.5	0
94	1695	23.6	0
94	1695	23.7	0
94	1695	23.8	0
94	1695	23.9	0
94	1695	24	0
94	1695	24.1	0
94	1695	24.2	0
94	1695	24.3	0
94	1695	24.4	0
94	1695	24.5	0
94	1695	24.6	0
94	1695	24.7	0
94	1695	24.8	0
94	1695	24.9	0
94	1695	25	0
94	1695	25.1	0
94	1695	25.2	0
94	1695	25.3	0
94	1695	25.4	0
94	1695	25.5	0
94	1695	25.6	0
94	1695	25.7	0
94	1695	25.8	0
94	1695	25.9	0
94	1695	26	0
94	1695	26.1	0
94	1695	26.2	0
94	1695	26.3	0
94	1695	26.4	0
94	1695	26.5	0
94	1695	26.6	0
94	1695	26.7	0
94	1695	26.8	0
94	1695	26.9	0
94	1695	27	0
94	1695	27.1	0
94	1695	27.2	0
94	1695	27.3	0
94	1695	27.4	0
94	1695	27.5	0
94	1695	27.6	0
94	1695	27.7	0
94	1695	27.8	0
94	1695	27.9	0
94	1695	28	0
94	1695	28.1	0
94	1695	28.2	0
94	1695	28.3	0
94	1695	28.4	0
94	1695	28.5	0
94	1695	28.6	0
94	1695	28.7	0
94	1695	28.8	0
94	1695	28.9	0
94	1695	29	0
94	1695	29.1	0
94	1695	29.2	0
94	1695	29.3	0
94	1695	29.4	0
94	1695	29.5	0
94	1695	29.6	0
94	1695	29.7	0
94	1695	29.8	0
94	1695	29.9	0
94	1695	30	0
94	1695	30.1	0
94	1695	30.2	0
94	1695	30.3	0
94	1695	30.4	0
94	1695	30.5	0
94	1695	30.6	0
94	1695	30.7	0
94	1695	30.8	0
94	1695	30.9	0
94	1695	31	0
94	1695	31.1	0
94	1695	31.2	0
94	1695	31.3	0
94	1695	31.4	0
94	1695	31.5	0
94	1695	31.6	0
94	1695	31.7	0
94	1695	31.8	0
94	1695	31.9	0
94	1695	32	0
94	1695	32.1	0
94	1695	32.2	0
94	1695	32.3	0
94	1695	32.4	0
94	1695	32.5	0
94	1695	32.6	0
94	1695	32.7	0
94	1695	32.8	0
94	1695	32.9	0
94	1695	33	0
94	1695	33.1	0
94	1695	33.2	0
94	1695	33.3	0
94	1695	33.4	0
94	1695	33.5	0
94	1695	33.6	0
94	1695	33.7	0
94	1695	33.8	0
94	1695	33.9	0
94	1695	34	0
94	1695	34.1	0
94	1695	34.2	0
94	1695	34.3	0
94	1695	34.4	0
94	1695	34.5	0
94	1695	34.6	0
94	1695	34.7	0
94	1695	34.8	0
94	1695	34.9	0
94	1695	35	0
94	1695	35.1	0
94	1695	35.2	0
94	1695	35.3	0
94	1695	35.4	0
94	1695	35.5	0
94	1695	35.6	0
94	1695	35.7	0
94	1695	35.8	0
94	1695	35.9	0
94	1695	36	0
94	1695	36.1	0
94	1695	36.2	0
94	1695	36.3	0
94	1695	36.4	0
94	1695	36.5	0
94	1695	36.6	0
94	1695	36.7	0
94	1695	36.8	0
94	1695	36.9	0
94	1695	37	0
94	1695	37.1	0
94	1695	37.2	0
94	1695	37.3	0
94	1695	37.4	0
94	1695	37.5	0
94	1695	37.6	0
94	1695	37.7	0
94	1695	37.8	0
94	1695	37.9	0
94	1695	38	0
94	1695	38.1	0
94	1695	38.2	0
94	1695	38.3	0
94	1695	38.4	0
94	1695	38.5	0
94	1695	38.6	0
94	1695	38.7	0
94	1695	38.8	0
94	1695	38.9	0
94	1695	39	0
94	1695	39.1	0
94	1695	39.2	0
94	1695	39.3	0
94	1695	39.4	0
94	1695	39.5	0
94	1695	39.6	0
94	1695	39.7	0
94	1695	39.8	0
94	1695	39.9	0
94	1695	40	0
94	1695	40.1	0
94	1695	40.2	0
94	1695	40.3	0
94	1695	40.4	0
94	1695	40.5	0
94	1695	40.6	0
94	1695	40.7	0
94	1695	40.8	0
94	1695	40.9	0
94	1695	41	0
94	1695	41.1	0
94	1695	41.2	0
94	1695	41.3	0
94	1695	41.4	0
94	1695	41.5	0
94	1695	41.6	0
94	1695	41.7	0
94	1695	41.8	0
94	1695	41.9	0
94	1695	42	0
94	1695	42.1	0
94	1695	42.2	0
94	1695	42.3	0
94	1695	42.4	0
94	1695	42.5	0
94	1695	42.6	0
94	1695	42.7	0
94	1695	42.8	0
94	1695	42.9	0
94	1695	43	0
94	1695	43.1	0
94	1695	43.2	0
94	1695	43.3	0
94	1695	43.4	0
94	1695	43.5	0
94	1695	43.6	0
94	1695	43.7	0
94	1695	43.8	0
94	1695	43.9	0
94	1695	44	0
94	1695	44.1	0
94	1695	44.2	0
94	1695	44.3	0
94	1695	44.4	0
94	1695	44.5	0
94	1695	44.6	0
94	1695	44.7	0
94	1695	44.8	0
94	1695	44.9	0
94	1695	45	0
94	1695	45.1	0
94	1695	45.2	0
94	1695	45.3	0
94	1695	45.4	0
94	1695	45.5	0
94	1695	45.6	0
94	1695	45.7	0
94	1695	45.8	0
94	1695	45.9	0
94	1695	46	0
94	1695	46.1	0
94	1695	46.2	0
94	1695	46.3	0
94	1695	46.4	0
94	1695	46.5	0
94	1695	46.6	0
94	1695	46.7	0
94	1695	46.8	0
94	1695	46.9	0
94	1695	47	0
94	1695	47.1	0
94	1695	47.2	0
94	1695	47.3	0
94	1695	47.4	0
94	1695	47.5	0
94	1695	47.6	0
94	1695	47.7	0
94	1695	47.8	0
94	1695	47.9	0
94	1695	48	0
94	1695	48.1	0
94	1695	48.2	0
94	1695	48.3	0
94	1695	48.4	0
94	1695	48.5	0
94	1695	48.6	0
94	1695	48.7	0
94	1695	48.8	0
94	1695	48.9	0
94	1695	49	0
94	1695	49.1	0
94	1695	49.2	0
94	1695	49.3	0
94	1695	49.4	0
94	1695	49.5	0
94	1695	49.6	0
94	1695	49.7	0
94	1695	49.8	0
94	1695	49.9	0
94	1695	50	0
94	1695	50.1	0
94	1695	50.2	0
94	1695	50.3	0
94	1695	50.4	0
94	1695	50.5	0
94	1695	50.6	0
94	1695	50.7	0
94	1695	50.8	0
94	1695	50.9	0
94	1695	51	0
94	1695	51.1	0
94	1695	51.2	0
94	1695	51.3	0
94	1695	51.4	0
94	1695	51.5	0
94	1695	51.6	0
94	1695	51.7	0
94	1695	51.8	0
94	1695	51.9	0
94	1695	52	0
94	1695	52.1	0
94	1695	52.2	0
94	1695	52.3	0
94	1695	52.4	0
94	1695	52.5	0
94	1695	52.6	0
94	1695	52.7	0
94	1695	52.8	0
94	1695	52.9	0
94	1695	53	0
94	1695	53.1	0
94	1695	53.2	0
94	1695	53.3	0
94	1695	53.4	0
94	1695	53.5	0
94	1695	53.6	0
94	1695	53.7	0
94	1695	53.8	0
94	1695	53.9	0
94	1695	54	0
94	1695	54.1	0
94	1695	54.2	0
94	1695	54.3	0
94	1695	54.4	0
94	1695	54.5	0
94	1695	54.6	0
94	1695	54.7	0
94	1695	54.8	0
94	1695	54.9	0
94	1695	55	0
94	1695	55.1	0
94	1695	55.2	0
94	1695	55.3	0
94	1695	55.4	0
94	1695	55.5	0
94	1695	55.6	0
94	1695	55.7	0
94	1695	55.8	0
94	1695	55.9	0
94	1695	56	0
94	1695	56.1	0
94	1695	56.2	0
94	1695	56.3	0
94	1695	56.4	0
94	1695	56.5	0
94	1695	56.6	0
94	1695	56.7	0
94	1695	56.8	0
94	1695	56.9	0
94	1695	57	0
94	1695	57.1	0
94	1695	57.2	0
94	1695	57.3	0
94	1695	57.4	0
94	1695	57.5	0
94	1695	57.6	0
94	1695	57.7	0
94	1695	57.8	0
94	1695	57.9	0
94	1695	58	0
94	1695	58.1	0
94	1695	58.2	0
94	1695	58.3	0
94	1695	58.4	0
94	1695	58.5	0
94	1695	58.6	0
94	1695	58.7	0
94	1695	58.8	0
94	1695	58.9	0
94	1695	59	0
94	1695	59.1	0
94	1695	59.2	0
94	1695	59.3	0
94	1695	59.4	0
94	1695	59.5	0
94	1695	59.6	0
94	1695	59.7	0
94	1695	59.8	0
94	1695	59.9	0
94	1695	60	0
94	1695	60.1	0
94	1695	60.2	0
94	1695	60.3	0
94	1695	60.4	0
94	1695	60.5	0
94	1695	60.6	0
94	1695	60.7	0
94	1695	60.8	0
94	1695	60.9	0
94	1695	61	0
94	1695	61.1	0
94	1695	61.2	0
94	1695	61.3	0
94	1695	61.4	0
94	1695	61.5	0
94	1695	61.6	0
94	1695	61.7	0
94	1695	61.8	0
94	1695	61.9	0
94	1695	62	0
94	1695	62.1	0
94	1695	62.2	0
94	1695	62.3	0
94	1695	62.4	0
94	1695	62.5	0
94	1695	62.6	0
94	1695	62.7	0
94	1695	62.8	0
94	1695	62.9	0
94	1695	63	0
94	1695	63.1	0
94	1695	63.2	0
94	1695	63.3	0
94	1695	63.4	0
94	1695	63.5	0
94	1695	63.6	0
94	1695	63.7	0
94	1695	63.8	0
94	1695	63.9	0
94	1695	64	0
94	1695	64.1	0
94	1695	64.2	0
94	1695	64.3	0
94	1695	64.4	0
94	1695	64.5	0
94	1695	64.6	0
94	1695	64.7	0
94	1695	64.8	0
94	1695	64.9	0
94	1695	65	0
94	1695	65.1	0
94	1695	65.2	0
94	1695	65.3	0
94	1695	65.4	0
94	1695	65.5	0
94	1695	65.6	0
94	1695	65.7	0
94	1695	65.8	0
94	1695	65.9	0
94	1695	66	0
94	1695	66.1	0
94	1695	66.2	0
94	1695	66.3	0
94	1695	66.4	0
94	1695	66.5	0
94	1695	66.6	0
94	1695	66.7	0
94	1695	66.8	0
94	1695	66.9	0
94	1695	67	0
94	1695	67.1	0
94	1695	67.2	0
94	1695	67.3	0
94	1695	67.4	0
94	1695	67.5	0
94	1695	67.6	0
94	1695	67.7	0
94	1695	67.8	0
94	1695	67.9	0
94	1695	68	0
94	1695	68.1	0
94	1695	68.2	0
94	1695	68.3	0
94	1695	68.4	0
94	1695	68.5	0
94	1695	68.6	0
94	1695	68.7	0
94	1695	68.8	0
94	1695	68.9	0
94	1695	69	0
94	1695	69.1	0
94	1695	69.2	0
94	1695	69.3	0
94	1695	69.4	0
94	1695	69.5	0
94	1695	69.6	0
94	1695	69.7	0
94	1695	69.8	0
94	1695	69.9	0
94	1695	70	0
94	1695	70.1	0
94	1695	70.2	0
94	1695	70.3	0
94	1695	70.4	0
94	1695	70.5	0
94	1695	70.6	0
94	1695	70.7	0
94	1695	70.8	0
94	1695	70.9	0
94	1695	71	0
94	1695	71.1	0
94	1695	71.2	0
94	1695	71.3	0
94	1695	71.4	0
94	1695	71.5	0
94	1695	71.6	0
94	1695	71.7	0
94	1695	71.8	0
94	1695	71.9	0
94	1695	72	0
94	1695	72.1	0
94	1695	72.2	0
94	1695	72.3	0
94	1695	72.4	0
94	1695	72.5	0
94	1695	72.6	0
94	1695	72.7	0
94	1695	72.8	0
94	1695	72.9	0
94	1695	73	0
94	1695	73.1	0
94	1695	73.2	0
94	1695	73.3	0
94	1695	73.4	0
94	1695	73.5	0
94	1695	73.6	0
94	1695	73.7	0
94	1695	73.8	0
94	1695	73.9	0
94	1695	74	0
94	1695	74.1	0
94	1695	74.2	0
94	1695	74.3	0
94	1695	74.4	0
94	1695	74.5	0
94	1695	74.6	0
94	1695	74.7	0
94	1695	74.8	0
94	1695	74.9	0
94	1695	75	0
94	1695	75.1	0
94	1695	75.2	0
94	1695	75.3	0
94	1695	75.4	0
94	1695	75.5	0
94	1695	75.6	0
94	1695	75.7	0
94	1695	75.8	0
94	1695	75.9	0
94	1695	76	0
94	1695	76.1	0
94	1695	76.2	0
94	1695	76.3	0
94	1695	76.4	0
94	1695	76.5	0
94	1695	76.6	0
94	1695	76.7	0
94	1695	76.8	0
94	1695	76.9	0
94	1695	77	0
94	1695	77.1	0
94	1695	77.2	0
94	1695	77.3	0
94	1695	77.4	0
94	1695	77.5	0
94	1695	77.6	0
94	1695	77.7	0
94	1695	77.8	0
94	1695	77.9	0
94	1695	78	0
94	1695	78.1	0
94	1695	78.2	0
94	1695	78.3	0
94	1695	78.4	0
94	1695	78.5	0
94	1695	78.6	0
94	1695	78.7	0
94	1695	78.8	0
94	1695	78.9	0
94	1695	79	0
94	1695	79.1	0
94	1695	79.2	0
94	1695	79.3	0
94	1695	79.4	0
94	1695	79.5	0
94	1695	79.6	0
94	1695	79.7	0
94	1695	79.8	0
94	1695	79.9	0
94	1695	80	0
94	1695	80.1	0
94	1695	80.2	0
94	1695	80.3	0
94	1695	80.4	0
94	1695	80.5	0
94	1695	80.6	0
94	1695	80.7	0
94	1695	80.8	0
94	1695	80.9	0
94	1695	81	0
94	1695	81.1	0
94	1695	81.2	0
94	1695	81.3	0
94	1695	81.4	0
94	1695	81.5	0
94	1695	81.6	0
94	1695	81.7	0
94	1695	81.8	0
94	1695	81.9	0
94	1695	82	0
94	1695	82.1	0
94	1695	82.2	0
94	1695	82.3	0
94	1695	82.4	0
94	1695	82.5	0
94	1695	82.6	0
94	1695	82.7	0
94	1695	82.8	0
94	1695	82.9	0
94	1695	83	0
94	1695	83.1	0
94	1695	83.2	0
94	1695	83.3	0
94	1695	83.4	0
94	1695	83.5	0
94	1695	83.6	0
94	1695	83.7	0
94	1695	83.8	0
94	1695	83.9	0
94	1695	84	0
94	1695	84.1	0
94	1695	84.2	0
94	1695	84.3	0
94	1695	84.4	0
94	1695	84.5	0
94	1695	84.6	0
94	1695	84.7	0
94	1695	84.8	0
94	1695	84.9	0
94	1695	85	0
94	1695	85.1	0
94	1695	85.2	0
94	1695	85.3	0
94	1695	85.4	0
94	1695	85.5	0
94	1695	85.6	0
94	1695	85.7	0
94	1695	85.8	0
94	1695	85.9	0
94	1695	86	0
94	1695	86.1	0
94	1695	86.2	0
94	1695	86.3	0
94	1695	86.4	0
94	1695	86.5	0
94	1695	86.6	0
94	1695	86.7	0
94	1695	86.8	0
94	1695	86.9	0
94	1695	87	0
94	1695	87.1	0
94	1695	87.2	0
94	1695	87.3	0
94	1695	87.4	0
94	1695	87.5	0
94	1695	87.6	0
94	1695	87.7	0
94	1695	87.8	0
94	1695	87.9	0
94	1695	88	0
94	1695	88.1	0
94	1695	88.2	0
94	1695	88.3	0
94	1695	88.4	0
94	1695	88.5	0
94	1695	88.6	0
94	1695	88.7	0
94	1695	88.8	0
94	1695	88.9	0
94	1695	89	0
94	1695	89.1	0
94	1695	89.2	0
94	1695	89.3	0
94	1695	89.4	0
94	1695	89.5	0
94	1695	89.6	0
94	1695	89.7	0
94	1695	89.8	0
94	1695	89.9	0
94	1695	90	0
94	1695	90.1	0
94	1695	90.2	0
94	1695	90.3	0
94	1695	90.4	0
94	1695	90.5	0
94	1695	90.6	0
94	1695	90.7	0
94	1695	90.8	0
94	1695	90.9	0
94	1695	91	0
94	1695	91.1	0
94	1695	91.2	0
94	1695	91.3	0
94	1695	91.4	0
94	1695	91.5	0
94	1695	91.6	0
94	1695	91.7	0
94	1695	91.8	0
94	1695	91.9	0
94	1695	92	0
94	1695	92.1	0
94	1695	92.2	0
94	1695	92.3	0
94	1695	92.4	0
94	1695	92.5	0
94	1695	92.6	0
94	1695	92.7	0
94	1695	92.8	0
94	1695	92.9	0
94	1695	93	0
94	1695	93.1	0
[...]
98	2115	80.6	0
98	2115	80.7	0
98	2115	80.8	0
98	2115	80.9	0
98	2115	81	0
98	2115	81.1	0
98	2115	81.2	0
98	2115	81.3	0
98	2115	81.4	0
98	2115	81.5	0
98	2115	81.6	0
98	2115	81.7	0
98	2115	81.8	0
98	2115	81.9	0
98	2115	82	0
98	2115	82.1	0
98	2115	82.2	0
98	2115	82.3	0
98	2115	82.4	0
98	2115	82.5	0
98	2115	82.6	0
98	2115	82.7	0
98	2115	82.8	0
98	2115	82.9	0
98	2115	83	0
98	2115	83.1	0
98	2115	83.2	0
98	2115	83.3	0
98	2115	83.4	0
98	2115	83.5	0
98	2115	83.6	0
98	2115	83.7	0
98	2115	83.8	0
98	2115	83.9	0
98	2115	84	0
98	2115	84.1	0
98	2115	84.2	0
98	2115	84.3	0
98	2115	84.4	0
98	2115	84.5	0
98	2115	84.6	0
98	2115	84.7	0
98	2115	84.8	0
98	2115	84.9	0
98	2115	85	0
98	2115	85.1	0
98	2115	85.2	0
98	2115	85.3	0
98	2115	85.4	0
98	2115	85.5	0
98	2115	85.6	0
98	2115	85.7	0
98	2115	85.8	0
98	2115	85.9	0
98	2115	86	0
98	2115	86.1	0
98	2115	86.2	0
98	2115	86.3	0
98	2115	86.4	0
98	2115	86.5	0
98	2115	86.6	0
98	2115	86.7	0
98	2115	86.8	0
98	2115	86.9	0
98	2115	87	0
98	2115	87.1	0
98	2115	87.2	0
98	2115	87.3	0
98	2115	87.4	0
98	2115	87.5	0
98	2115	87.6	0
98	2115	87.7	0
98	2115	87.8	0
98	2115	87.9	0
98	2115	88	0
98	2115	88.1	0
98	2115	88.2	0
98	2115	88.3	0
98	2115	88.4	0
98	2115	88.5	0
98	2115	88.6	0
98	2115	88.7	0
98	2115	88.8	0
98	2115	88.9	0
98	2115	89	0
98	2115	89.1	0
98	2115	89.2	0
98	2115	89.3	0
98	2115	89.4	0
98	2115	89.5	0
98	2115	89.6	0
98	2115	89.7	0
98	2115	89.8	0
98	2115	89.9	0
98	2115	90	0
98	2115	90.1	0
98	2115	90.2	0
98	2115	90.3	0
98	2115	90.4	0
98	2115	90.5	0
98	2115	90.6	0
98	2115	90.7	0
98	2115	90.8	0
98	2115	90.9	0
98	2115	91	0
98	2115	91.1	0
98	2115	91.2	0
98	2115	91.3	0
98	2115	91.4	0
98	2115	91.5	0
98	2115	91.6	0
98	2115	91.7	0
98	2115	91.8	0
98	2115	91.9	0
98	2115	92	0
98	2115	92.1	0
98	2115	92.2	0
98	2115	92.3	0
98	2115	92.4	0
98	2115	92.5	0
98	2115	92.6	0
98	2115	92.7	0
98	2115	92.8	0
98	2115	92.9	0
98	2115	93	0
98	2115	93.1	0
98	2115	93.2	0
98	2115	93.3	0
98	2115	93.4	0
98	2115	93.5	0
98	2115	93.6	0
98	2115	93.7	0
98	2115	93.8	0
98	2115	93.9	0
98	2115	94	0
98	2115	94.1	0
98	2115	94.2	0
98	2115	94.3	0
98	2115	94.4	0
98	2115	94.5	0
98	2115	94.6	0
98	2115	94.7	0
98	2115	94.8	0
98	2115	94.9	0
98	2115	95	0
98	2115	95.1	0
98	2115	95.2	0
98	2115	95.3	0
98	2115	95.4	0
98	2115	95.5	0
98	2115	95.6	0
98	2115	95.7	0
98	2115	95.8	0
98	2115	95.9	0
98	2115	96	0
98	2115	96.1	0
98	2115	96.2	0
98	2115	96.3	0
98	2115	96.4	0
98	2115	96.5	0
98	2115	96.6	0
98	2115	96.7	0
98	2115	96.8	0
98	2115	96.9	0
98	2115	97	0
98	2115	97.1	0
98	2115	97.2	0
98	2115	97.3	0
98	2115	97.4	0
98	2115	97.5	0
98	2115	97.6	0
98	2115	97.7	0
98	2115	97.8	0
98	2115	97.9	0
98	2115	98	0
98	2115	98.1	0
98	2115	98.2	0
98	2115	98.3	0
98	2115	98.4	0
98	2115	98.5	0
98	2115	98.6	0
98	2115	98.7	0
98	2115	98.8	0
98	2115	98.9	0
98	2115	99	0
98	2115	99.1	0
98	2115	99.2	0
98	2115	99.3	0
98	2115	99.4	0
98	2115	99.5	0
98	2115	99.6	0
98	2115	99.7	0
98	2115	99.8	0
98	2115	99.9	0
98	2115	100	0
98	2115	100.1	0
98	2115	100.2	0
98	2115	100.3	0
98	2115	100.4	0
98	2115	100.5	0
98	2115	100.6	0
98	2115	100.7	0
98	2115	100.8	0
98	2115	100.9	0
98	2115	101	0
98	2115	101.1	0
98	2115	101.2	0
98	2115	101.3	0
98	2115	101.4	0
98	2115	101.5	0
98	2115	101.6	0
98	2115	101.7	0
98	2115	101.8	0
98	2115	101.9	0
98	2115	102	0
98	2115	102.1	0
98	2115	102.2	0
98	2115	102.3	0
98	2115	102.4	0
98	2115	102.5	0
98	2115	102.6	0
98	2115	102.7	0
98	2115	102.8	0
98	2115	102.9	0
98	2115	103	0
98	2115	103.1	0
98	2115	103.2	0
98	2115	103.3	0
98	2115	103.4	0
98	2115	103.5	0
98	2115	103.6	0
98	2115	103.7	0
98	2115	103.8	0
98	2115	103.9	0
98	2115	104	0
98	2115	104.1	0
98	2115	104.2	0
98	2115	104.3	0
98	2115	104.4	0
98	2115	104.5	0
98	2115	104.6	0
98	2115	104.7	0
98	2115	104.8	0
98	2115	104.9	0
98	2115	105	0
98	2115	105.1	0
98	2115	105.2	0
98	2115	105.3	0
98	2115	105.4	0
98	2115	105.5	0
98	2115	105.6	0
98	2115	105.7	0
98	2115	105.8	0
98	2115	105.9	0
98	2115	106	0
98	2115	106.1	0
98	2115	106.2	0
98	2115	106.3	0
98	2115	106.4	0
98	2115	106.5	0
98	2115	106.6	0
98	2115	106.7	0
98	2115	106.8	0
98	2115	106.9	0
98	2115	107	0
98	2115	107.1	0
98	2115	107.2	0
98	2115	107.3	0
98	2115	107.4	0
98	2115	107.5	0
98	2115	107.6	0
98	2115	107.7	0
98	2115	107.8	0
98	2115	107.9	0
98	2115	108	0
98	2115	108.1	0
98	2115	108.2	0
98	2115	108.3	0
98	2115	108.4	0
98	2115	108.5	0
98	2115	108.6	0
98	2115	108.7	0
98	2115	108.8	0
98	2115	108.9	0
98	2115	109	0
98	2115	109.1	0
98	2115	109.2	0
98	2115	109.3	0
98	2115	109.4	0
98	2115	109.5	0
98	2115	109.6	0
98	2115	109.7	0
98	2115	109.8	0
98	2115	109.9	0
98	2115	110	0
98	2115	110.1	0
98	2115	110.2	0
98	2115	110.3	0
98	2115	110.4	0
98	2115	110.5	0
98	2115	110.6	0
98	2115	110.7	0
98	2115	110.8	0
98	2115	110.9	0
98	2115	111	0
98	2115	111.1	0
98	2115	111.2	0
98	2115	111.3	0
98	2115	111.4	0
98	2115	111.5	0
98	2115	111.6	0
98	2115	111.7	0
98	2115	111.8	0
98	2115	111.9	0
98	2115	112	0
98	2115	112.1	0
98	2115	112.2	0
98	2115	112.3	0
98	2115	112.4	0
98	2115	112.5	0
98	2115	112.6	0
98	2115	112.7	0
98	2115	112.8	0
98	2115	112.9	0
98	2115	113	0
98	2115	113.1	0
98	2115	113.2	0
98	2115	113.3	0
98	2115	113.4	0
98	2115	113.5	0
98	2115	113.6	0
98	2115	113.7	0
98	2115	113.8	0
98	2115	113.9	0
98	2115	114	0
98	2115	114.1	0
98	2115	114.2	0
98	2115	114.3	0
98	2115	114.4	0
98	2115	114.5	0
98	2115	114.6	0
98	2115	114.7	0
98	2115	114.8	0
98	2115	114.9	0
98	2115	115	0
98	2115	115.1	0
98	2115	115.2	0
98	2115	115.3	0
98	2115	115.4	0
98	2115	115.5	0
98	2115	115.6	0
98	2115	115.7	0
98	2115	115.8	0
98	2115	115.9	0
98	2115	116	0
98	2115	116.1	0
98	2115	116.2	0
98	2115	116.3	0
98	2115	116.4	0
98	2115	116.5	0
98	2115	116.6	0
98	2115	116.7	0
98	2115	116.8	0
98	2115	116.9	0
98	2115	117	0
98	2115	117.1	0
98	2115	117.2	0
98	2115	117.3	0
98	2115	117.4	0
98	2115	117.5	0
98	2115	117.6	0
98	2115	117.7	0
98	2115	117.8	0
98	2115	117.9	0
98	2115	118	0
98	2115	118.1	0
98	2115	118.2	0
98	2115	118.3	0
98	2115	118.4	0
98	2115	118.5	0
98	2115	118.6	0
98	2115	118.7	0
98	2115	118.8	0
98	2115	118.9	0
98	2115	119	0
98	2115	119.1	0
98	2115	119.2	0
98	2115	119.3	0
98	2115	119.4	0
98	2115	119.5	0
98	2115	119.6	0
98	2115	119.7	0
98	2115	119.8	0
98	2115	119.9	0
98	2115	120	0
98	2115	120.1	0
98	2115	120.2	0
98	2115	120.3	0
98	2115	120.4	0
98	2115	120.5	0
98	2115	120.6	0
98	2115	120.7	0
98	2115	120.8	0
98	2115	120.9	0
98	2115	121	0
98	2115	121.1	0
98	2115	121.2	0
98	2115	121.3	0
98	2115	121.4	0
98	2115	121.5	0
98	2115	121.6	0
98	2115	121.7	0
98	2115	121.8	0
98	2115	121.9	0
98	2115	122	0
98	2115	122.1	0
98	2115	122.2	0
98	2115	122.3	0
98	2115	122.4	0
98	2115	122.5	0
98	2115	122.6	0
98	2115	122.7	0
98	2115	122.8	0
98	2115	122.9	0
98	2115	123	0
98	2115	123.1	0
98	2115	123.2	0
98	2115	123.3	0
98	2115	123.4	0
98	2115	123.5	0
98	2115	123.6	0
98	2115	123.7	0
98	2115	123.8	0
98	2115	123.9	0
98	2115	124	0
98	2115	124.1	0
98	2115	124.2	0
98	2115	124.3	0
98	2115	124.4	0
98	2115	124.5	0
98	2115	124.6	0
98	2115	124.7	0
98	2115	124.8	0
98	2115	124.9	0
98	2115	125	0
98	2115	125.1	0
98	2115	125.2	0
98	2115	125.3	0
98	2115	125.4	0
98	2115	125.5	0
98	2115	125.6	0
98	2115	125.7	0
98	2115	125.8	0
98	2115	125.9	0
98	2115	126	0
98	2115	126.1	0
98	2115	126.2	0
98	2115	126.3	0
98	2115	126.4	0
98	2115	126.5	0
98	2115	126.6	0
98	2115	126.7	0
98	2115	126.8	0
98	2115	126.9	0
98	2115	127	0
98	2115	127.1	0
98	2115	127.2	0
98	2115	127.3	0
98	2115	127.4	0
98	2115	127.5	0
98	2115	127.6	0
98	2115	127.7	0
98	2115	127.8	0
98	2115	127.9	0
98	2115	128	0
98	2115	128.1	0
98	2115	128.2	0
98	2115	128.3	0
98	2115	128.4	0
98	2115	128.5	0
98	2115	128.6	0
98	2115	128.7	0
98	2115	128.8	0
98	2115	128.9	0
98	2115	129	0
98	2115	129.1	0
98	2115	129.2	0
98	2115	129.3	0
98	2115	129.4	0
98	2115	129.5	0
98	2115	129.6	0
98	2115	129.7	0
98	2115	129.8	0
98	2115	129.9	0
98	2115	130	0
98	2115	130.1	0
98	2115	130.2	0
98	2115	130.3	0
98	2115	130.4	0
98	2115	130.5	0
98	2115	130.6	0
98	2115	130.7	0
98	2115	130.8	0
98	2115	130.9	0
98	2115	131	0
98	2115	131.1	0
98	2115	131.2	0
98	2115	131.3	0
98	2115	131.4	0
98	2115	131.5	0
98	2115	131.6	0
98	2115	131.7	0
98	2115	131.8	0
98	2115	131.9	0
98	2115	132	0
98	2115	132.1	0
98	2115	132.2	0
98	2115	132.3	0
98	2115	132.4	0
98	2115	132.5	0
98	2115	132.6	0
98	2115	132.7	0
98	2115	132.8	0
98	2115	132.9	0
98	2115	133	0
98	2115	133.1	0
98	2115	133.2	0
98	2115	133.3	0
98	2115	133.4	0
98	2115	133.5	0
98	2115	133.6	0
98	2115	133.7	0
98	2115	133.8	0
98	2115	133.9	0
98	2115	134	0
98	2115	134.1	0
98	2115	134.2	0
98	2115	134.3	0
98	2115	134.4	0
98	2115	134.5	0
98	2115	134.6	0
98	2115	134.7	0
98	2115	134.8	0
98	2115	134.9	0
98	2115	135	0
98	2115	135.1	0
98	2115	135.2	0
98	2115	135.3	0
98	2115	135.4	0
98	2115	135.5	0
98	2115	135.6	0
98	2115	135.7	0
98	2115	135.8	0
98	2115	135.9	0
98	2115	136	0
98	2115	136.1	0
98	2115	136.2	0
98	2115	136.3	0
98	2115	136.4	0
98	2115	136.5	0
98	2115	136.6	0
98	2115	136.7	0
98	2115	136.8	0
98	2115	136.9	0
98	2115	137	0
98	2115	137.1	0
98	2115	137.2	0
98	2115	137.3	0
98	2115	137.4	0
98	2115	137.5	0
98	2115	137.6	0
98	2115	137.7	0
98	2115	137.8	0
98	2115	137.9	0
98	2115	138	0
98	2115	138.1	0
98	2115	138.2	0
98	2115	138.3	0
98	2115	138.4	0
98	2115	138.5	0
98	2115	138.6	0
98	2115	138.7	0
98	2115	138.8	0
98	2115	138.9	0
98	2115	139	0
98	2115	139.1	0
98	2115	139.2	0
98	2115	139.3	0
98	2115	139.4	0
98	2115	139.5	0
98	2115	139.6	0
98	2115	139.7	0
98	2115	139.8	0
98	2115	139.9	0
98	2115	140	0
98	2115	140.1	0
98	2115	140.2	0
98	2115	140.3	0
98	2115	140.4	0
98	2115	140.5	0
98	2115	140.6	0
98	2115	140.7	0
98	2115	140.8	0
98	2115	140.9	0
98	2115	141	0
98	2115	141.1	0
98	2115	141.2	0
98	2115	141.3	0
98	2115	141.4	0
98	2115	141.5	0
98	2115	141.6	0
98	2115	141.7	0
98	2115	141.8	0
98	2115	141.9	0
98	2115	142	0
98	2115	142.1	0
98	2115	142.2	0
98	2115	142.3	0
98	2115	142.4	0
98	2115	142.5	0
98	2115	142.6	0
98	2115	142.7	0
98	2115	142.8	0
98	2115	142.9	0
98	2115	143	0
98	2115	143.1	0
98	2115	143.2	0
98	2115	143.3	0
98	2115	143.4	0
98	2115	143.5	0
98	2115	143.6	0
98	2115	143.7	0
98	2115	143.8	0
98	2115	143.9	0
98	2115	144	0
98	2115	144.1	0
98	2115	144.2	0
98	2115	144.3	0
98	2115	144.4	0
98	2115	144.5	0
98	2115	144.6	0
98	2115	144.7	0
98	2115	144.8	0
98	2115	144.9	0
98	2115	145	0
98	2115	145.1	0
98	2115	145.2	0
98	2115	145.3	0
98	2115	145.4	0
98	2115	145.5	0
98	2115	145.6	0
98	2115	145.7	0
98	2115	145.8	0
98	2115	145.9	0
98	2115	146	0
98	2115	146.1	0
98	2115	146.2	0
98	2115	146.3	0
98	2115	146.4	0
98	2115	146.5	0
98	2115	146.6	0
98	2115	146.7	0
98	2115	146.8	0
98	2115	146.9	0
98	2115	147	0
98	2115	147.1	0
98	2115	147.2	0
98	2115	147.3	0
98	2115	147.4	0
98	2115	147.5	0
98	2115	147.6	0
98	2115	147.7	0
98	2115	147.8	0
98	2115	147.9	0
98	2115	148	0
98	2115	148.1	0
98	2115	148.2	0
98	2115	148.3	0
98	2115	148.4	0
98	2115	148.5	0
98	2115	148.6	0
98	2115	148.7	0
98	2115	148.8	0
98	2115	148.9	0
98	2115	149	0
98	2115	149.1	0
98	2115	149.2	0
98	2115	149.3	0
98	2115	149.4	0
98	2115	149.5	0
98	2115	149.6	0
98	2115	149.7	0
98	2115	149.8	0
98	2115	149.9	0
98	2115	150	0
98	2115	150.1	0
98	2115	150.2	0
98	2115	150.3	0
98	2115	150.4	0
98	2115	150.5	0
98	2115	150.6	0
98	2115	150.7	0
98	2115	150.8	0
98	2115	150.9	0
98	2115	151	0
98	2115	151.1	0
98	2115	151.2	0
98	2115	151.3	0
98	2115	151.4	0
98	2115	151.5	0
98	2115	151.6	0
98	2115	151.7	0
98	2115	151.8	0
98	2115	151.9	0
98	2115	152	0
98	2115	152.1	0
98	2115	152.2	0
98	2115	152.3	0
98	2115	152.4	0
98	2115	152.5	0
98	2115	152.6	0
98	2115	152.7	0
98	2115	152.8	0
98	2115	152.9	0
98	2115	153	0
98	2115	153.1	0
98	2115	153.2	0
98	2115	153.3	0
98	2115	153.4	0
98	2115	153.5	0
98	2115	153.6	0
98	2115	153.7	0
98	2115	153.8	0
98	2115	153.9	0
98	2115	154	0
98	2115	154.1	0
98	2115	154.2	0
98	2115	154.3	0
98	2115	154.4	0
98	2115	154.5	0
98	2115	154.6	0
98	2115	154.7	0
98	2115	154.8	0
98	2115	154.9	0
98	2115	155	0
98	2115	155.1	0
98	2115	155.2	0
98	2115	155.3	0
98	2115	155.4	0
98	2115	155.5	0
98	2115	155.6	0
98	2115	155.7	0
98	2115	155.8	0
98	2115	155.9	0
98	2115	156	0
98	2115	156.1	0
98	2115	156.2	0
98	2115	156.3	0
98	2115	156.4	0
98	2115	156.5	0
98	2115	156.6	0
98	2115	156.7	0
98	2115	156.8	0
98	2115	156.9	0
98	2115	157	0
98	2115	157.1	0
98	2115	157.2	0
98	2115	157.3	0
98	2115	157.4	0
98	2115	157.5	0
98	2115	157.6	0
98	2115	157.7	0
98	2115	157.8	0
98	2115	157.9	0
98	2115	158	0
98	2115	158.1	0
98	2115	158.2	0
98	2115	158.3	0
98	2115	158.4	0
98	2115	158.5	0
98	2115	158.6	0
98	2115	158.7	0
98	2115	158.8	0
98	2115	158.9	0
98	2115	159	0
98	2115	159.1	0
98	2115	159.2	0
98	2115	159.3	0
98	2115	159.4	0
98	2115	159.5	0
98	2115	159.6	0
98	2115	159.7	0
98	2115	159.8	0
98	2115	159.9	0
98	2115	160	0
98	2115	160.1	0
98	2115	160.2	0
98	2115	160.3	0
98	2115	160.4	0
98	2115	160.5	0
98	2115	160.6	0
98	2115	160.7	0
98	2115	160.8	0
98	2115	160.9	0
98	2115	161	0
98	2115	161.1	0
98	2115	161.2	0
98	2115	161.3	0
98	2115	161.4	0
98	2115	161.5	0
98	2115	161.6	0
98	2115	161.7	0
98	2115	161.8	0
98	2115	161.9	0
98	2115	162	0
98	2115	162.1	0
98	2115	162.2	0
98	2115	162.3	0
98	2115	162.4	0
98	2115	162.5	0
98	2115	162.6	0
98	2115	162.7	0
98	2115	162.8	0
98	2115	162.9	0
98	2115	163	0
98	2115	163.1	0
98	2115	163.2	0
98	2115	163.3	0
98	2115	163.4	0
98	2115	163.5	0
98	2115	163.6	0
98	2115	163.7	0
98	2115	163.8	0
98	2115	163.9	0
98	2115	164	0
98	2115	164.1	0
98	2115	164.2	0
98	2115	164.3	0
98	2115	164.4	0
98	2115	164.5	0
98	2115	164.6	0
98	2115	164.7	0
98	2115	164.8	0
98	2115	164.9	0
98	2115	165	0
98	2115	165.1	0
98	2115	165.2	0
98	2115	165.3	0
98	2115	165.4	0
98	2115	165.5	0
98	2115	165.6	0
98	2115	165.7	0
98	2115	165.8	0
98	2115	165.9	0
98	2115	166	0
98	2115	166.1	0
98	2115	166.2	0
98	2115	166.3	0
98	2115	166.4	0
98	2115	166.5	0
98	2115	166.6	0
98	2115	166.7	0
98	2115	166.8	0
98	2115	166.9	0
98	2115	167	0
98	2115	167.1	0
98	2115	167.2	0
98	2115	167.3	0
98	2115	167.4	0
98	2115	167.5	0
98	2115	167.6	0
98	2115	167.7	0
98	2115	167.8	0
98	2115	167.9	0
98	2115	168	0
98	2115	168.1	0
98	2115	168.2	0
98	2115	168.3	0
98	2115	168.4	0
98	2115	168.5	0
98	2115	168.6	0
98	2115	168.7	0
98	2115	168.8	0
98	2115	168.9	0
98	2115	169	0
98	2115	169.1	0
98	2115	169.2	0
98	2115	169.3	0
98	2115	169.4	0
98	2115	169.5	0
98	2115	169.6	0
98	2115	169.7	0
98	2115	169.8	0
98	2115	169.9	0
98	2115	170	0
98	2115	170.1	0
98	2115	170.2	0
98	2115	170.3	0
98	2115	170.4	0
98	2115	170.5	0
98	2115	170.6	0
98	2115	170.7	0
98	2115	170.8	0
98	2115	170.9	0
98	2115	171	0
98	2115	171.1	0
98	2115	171.2	0
98	2115	171.3	0
98	2115	171.4	0
98	2115	171.5	0
98	2115	171.6	0
98	2115	171.7	0
98	2115	171.8	0
98	2115	171.9	0
98	2115	172	0
98	2115	172.1	0
98	2115	172.2	0
98	2115	172.3	0
98	2115	172.4	0
98	2115	172.5	0
98	2115	172.6	0
98	2115	172.7	0
98	2115	172.8	0
98	2115	172.9	0
98	2115	173	0
98	2115	173.1	0
98	2115	173.2	0
98	2115	173.3	0
98	2115	173.4	0
98	2115	173.5	0
98	2115	173.6	0
98	2115	173.7	0
98	2115	173.8	0
98	2115	173.9	0
98	2115	174	0
98	2115	174.1	0
98	2115	174.2	0
98	2115	174.3	0
98	2115	174.4	0
98	2115	174.5	0
98	2115	174.6	0
98	2115	174.7	0
98	2115	174.8	0
98	2115	174.9	0
98	2115	175	0
98	2115	175.1	0
98	2115	175.2	0
98	2115	175.3	0
98	2115	175.4	0
98	2115	175.5	0
98	2115	175.6	0
98	2115	175.7	0
98	2115	175.8	0
98	2115	175.9	0
98	2115	176	0
98	2115	176.1	0
98	2115	176.2	0
98	2115	176.3	0
98	2115	176.4	0
98	2115	176.5	0
98	2115	176.6	0
98	2115	176.7	0
98	2115	176.8	0
98	2115	176.9	0
98	2115	177	0
98	2115	177.1	0
98	2115	177.2	0
98	2115	177.3	0
98	2115	177.4	0
98	2115	177.5	0
98	2115	177.6	0
98	2115	177.7	0
98	2115	177.8	0
98	2115	177.9	0
98	2115	178	0
98	2115	178.1	0
98	2115	178.2	0
98	2115	178.3	0
98	2115	178.4	0
98	2115	178.5	0
98	2115	178.6	0
98	2115	178.7	0
98	2115	178.8	0
98	2115	178.9	0
98	2115	179	0
98	2115	179.1	0
98	2115	179.2	0
98	2115	179.3	0
98	2115	179.4	0
98	2115	179.5	0
98	2115	179.6	0
98	2115	179.7	0
98	2115	179.8	0
98	2115	179.9	0
98	2115	180	0
98	2115	180.1	0
98	2115	180.2	0
98	2115	180.3	0
98	2115	180.4	0
98	2115	180.5	0
98	2115	180.6	0
98	2115	180.7	0
98	2115	180.8	0
98	2115	180.9	0
98	2115	181	0
98	2115	181.1	0
98	2115	181.2	0
98	2115	181.3	0
98	2115	181.4	0
98	2115	181.5	0
98	2115	181.6	0
98	2115	181.7	0
98	2115	181.8	0
98	2115	181.9	0
98	2115	182	0
98	2115	182.1	0
98	2115	182.2	0
98	2115	182.3	0
98	2115	182.4	0
98	2115	182.5	0
98	2115	182.6	0
98	2115	182.7	0
98	2115	182.8	0
98	2115	182.9	0
98	2115	183	0
98	2115	183.1	0
98	2115	183.2	0
98	2115	183.3	0
98	2115	183.4	0
98	2115	183.5	0
98	2115	183.6	0
98	2115	183.7	0
98	2115	183.8	0
98	2115	183.9	0
98	2115	184	0
98	2115	184.1	0
98	2115	184.2	0
98	2115	184.3	0
98	2115	184.4	0
98	2115	184.5	0
98	2115	184.6	0
98	2115	184.7	0
98	2115	184.8	0
98	2115	184.9	0
98	2115	185	0
98	2115	185.1	0
98	2115	185.2	0
98	2115	185.3	0
98	2115	185.4	0
98	2115	185.5	0
98	2115	185.6	0
98	2115	185.7	0
98	2115	185.8	0
98	2115	185.9	0
98	2115	186	0
98	2115	186.1	0
98	2115	186.2	0
98	2115	186.3	0
98	2115	186.4	0
98	2115	186.5	0
98	2115	186.6	0
98	2115	186.7	0
98	2115	186.8	0
98	2115	186.9	0
98	2115	187	0
98	2115	187.1	0
98	2115	187.2	0
98	2115	187.3	0
98	2115	187.4	0
98	2115	187.5	0
98	2115	187.6	0
98	2115	187.7	0
98	2115	187.8	0
98	2115	187.9	0
98	2115	188	0
98	2115	188.1	0
98	2115	188.2	0
98	2115	188.3	0
98	2115	188.4	0
98	2115	188.5	0
98	2115	188.6	0
98	2115	188.7	0
98	2115	188.8	0
98	2115	188.9	0
98	2115	189	0
98	2115	189.1	0
98	2115	189.2	0
98	2115	189.3	0
98	2115	189.4	0
98	2115	189.5	0
98	2115	189.6	0
98	2115	189.7	0
98	2115	189.8	0
98	2115	189.9	0
98	2115	190	0
98	2115	190.1	0
98	2115	190.2	0
98	2115	190.3	0
98	2115	190.4	0
98	2115	190.5	0
98	2115	190.6	0
98	2115	190.7	0
98	2115	190.8	0
98	2115	190.9	0
98	2115	191	0
98	2115	191.1	0
98	2115	191.2	0
98	2115	191.3	0
98	2115	191.4	0
98	2115	191.5	0
98	2115	191.6	0
98	2115	191.7	0
98	2115	191.8	0
98	2115	191.9	0
98	2115	192	0
98	2115	192.1	0
98	2115	192.2	0
98	2115	192.3	0
98	2115	192.4	0
98	2115	192.5	0
98	2115	192.6	0
98	2115	192.7	0
98	2115	192.8	0
98	2115	192.9	0
98	2115	193	0
98	2115	193.1	0
98	2115	193.2	0
98	2115	193.3	0
98	2115	193.4	0
98	2115	193.5	0
98	2115	193.6	0
98	2115	193.7	0
98	2115	193.8	0
98	2115	193.9	0
98	2115	194	0
98	2115	194.1	0
98	2115	194.2	0
98	2115	194.3	0
98	2115	194.4	0
98	2115	194.5	0
98	2115	194.6	0
98	2115	194.7	0
98	2115	194.8	0
98	2115	194.9	0
98	2115	195	0
98	2115	195.1	0
98	2115	195.2	0
98	2115	195.3	0
98	2115	195.4	0
98	2115	195.5	0
98	2115	195.6	0
98	2115	195.7	0
98	2115	195.8	0
98	2115	195.9	0
98	2115	196	0
98	2115	196.1	0
98	2115	196.2	0
98	2115	196.3	0
98	2115	196.4	0
98	2115	196.5	0
98	2115	196.6	0
98	2115	196.7	0
98	2115	196.8	0
98	2115	196.9	0
98	2115	197	0
98	2115	197.1	0
98	2115	197.2	0
98	2115	197.3	0
98	2115	197.4	0
98	2115	197.5	0
98	2115	197.6	0
98	2115	197.7	0
98	2115	197.8	0
98	2115	197.9	0
98	2115	198	0
98	2115	198.1	0
98	2115	198.2	0
98	2115	198.3	0
98	2115	198.4	0
98	2115	198.5	0
98	2115	198.6	0
98	2115	198.7	0
98	2115	198.8	0
98	2115	198.9	0
98	2115	199	0
98	2115	199.1	0
98	2115	199.2	0
98	2115	199.3	0
98	2115	199.4	0
98	2115	199.5	0
98	2115	199.6	0
98	2115	199.7	0
98	2115	199.8	0
98	2115	199.9	0
98	2115	200	0
0	0	0	0
0	0	0	0
0	0	0	2
1	0	0	0
2	0	0	0
2	0	0	0
2	0	0	2
3	0	0	0
4	0	0	1
5	0	0	1
6	0	0	31
7	0	0	31

