version 2
run plain-0-20250608-13:29:24-7604
attr configname plain
attr datetime 20250608-13:29:24
attr experiment plain
attr inifile omnetpp.ini
attr iterationvars ""
attr iterationvarsf ""
attr measurement ""
attr network Scenario
attr processid 7604
attr repetition 0
attr replication #0
attr resultdir results
attr runnumber 0
attr seedset 0
param *.node[*].numApps 1
param *.node[*].app[0].typename "\"v2xsimulation.veins_inet.VeinsInetSampleApplication\""
param *.node[*].app[0].interface "\"wlan0\""
param *.node[*].wlan[0].opMode "\"p\""
param *.node[*].wlan[0].radio.typename "\"Ieee80211DimensionalRadio\""
param *.node[*].wlan[0].radio.bandName "\"5.9 GHz\""
param *.node[*].wlan[0].radio.channelNumber 3
param *.node[*].wlan[0].radio.transmitter.power 20mW
param *.node[*].wlan[0].radio.bandwidth "10 MHz"
param *.node[*].wlan[*].radio.antenna.mobility.typename "\"AttachedMobility\""
param *.node[*].wlan[*].radio.antenna.mobility.mobilityModule "\"^.^.^.^.mobility\""
param *.node[*].wlan[*].radio.antenna.mobility.offsetX -2.5m
param *.node[*].wlan[*].radio.antenna.mobility.offsetZ 1.5m
param *.node[*].wlan[*].radio.antenna.mobility.constraintAreaMinX 0m
param *.node[*].wlan[*].radio.antenna.mobility.constraintAreaMaxX 0m
param *.node[*].wlan[*].radio.antenna.mobility.constraintAreaMinY 0m
param *.node[*].wlan[*].radio.antenna.mobility.constraintAreaMaxY 0m
param *.node[*].wlan[*].radio.antenna.mobility.constraintAreaMinZ 0m
param *.node[*].wlan[*].radio.antenna.mobility.constraintAreaMaxZ 0m
param *.node[*].app[0].localPort 1234
param *.node[*].app[0].destAddress "\"224.0.0.1\""
param *.node[*].app[0].destPort 9001
param *.rsu1.numApps 1
param *.rsu1.app[0].typename "\"v2xsimulation.veins_inet.VeinsInetRSUApplication\""
param *.rsu1.app[0].interface "\"wlan0\""
param *.rsu2.numApps 1
param *.rsu2.app[0].typename "\"v2xsimulation.veins_inet.VeinsInetRSUApplication\""
param *.rsu2.app[0].interface "\"wlan0\""
param *.rsu1.app[0].interfaceTableModule "\"^.interfaceTable\""
param *.rsu2.app[0].interfaceTableModule "\"^.interfaceTable\""
param *.rsu1.wlan[0].opMode "\"p\""
param *.rsu1.wlan[0].radio.typename "\"Ieee80211DimensionalRadio\""
param *.rsu1.wlan[0].radio.bandName "\"5.9 GHz\""
param *.rsu1.wlan[0].radio.channelNumber 3
param *.rsu1.wlan[0].radio.transmitter.power 20mW
param *.rsu1.wlan[0].radio.bandwidth "10 MHz"
param *.rsu2.wlan[0].opMode "\"p\""
param *.rsu2.wlan[0].radio.typename "\"Ieee80211DimensionalRadio\""
param *.rsu2.wlan[0].radio.bandName "\"5.9 GHz\""
param *.rsu2.wlan[0].radio.channelNumber 3
param *.rsu2.wlan[0].radio.transmitter.power 20mW
param *.rsu2.wlan[0].radio.bandwidth "10 MHz"
param *.**.ipv4.configurator.typename "\"HostAutoConfigurator\""
param *.**.ipv4.configurator.interfaces "\"wlan0\""
param *.**.ipv4.configurator.mcastGroups "\"224.0.0.1\""
param *.rsu1.app[0].localPort 9001
param *.rsu2.app[0].localPort 9001
param *.node[*].mobility.typename "\"VeinsInetMobility\""
param *.manager.updateInterval 0.1s
param *.manager.host "\"localhost\""
param *.manager.port 9999
param *.manager.autoShutdown true
param *.manager.launchConfig "xmldoc(\"nh29.launchd.xml\")"
param *.manager.moduleType "\"v2xsimulation.veins_inet.VeinsInetCar\""
param *.physicalEnvironment.config "xmldoc(\"obstacles.xml\")"
param *.radioMedium.obstacleLoss.typename "\"IdealObstacleLoss\""

vector 0 Scenario.rsu1.wlan[0].radio radioMode:vector ETV
attr interpolationmode sample-hold
attr source radioModeChanged
attr title "Radio mode, vector"
vector 1 Scenario.rsu1.wlan[0].radio radioChannel:vector ETV
attr interpolationmode sample-hold
attr source radioChannelChanged
attr title "Radio channel, vector"
vector 2 Scenario.rsu2.wlan[0].radio radioMode:vector ETV
attr interpolationmode sample-hold
attr source radioModeChanged
attr title "Radio mode, vector"
vector 3 Scenario.rsu2.wlan[0].radio radioChannel:vector ETV
attr interpolationmode sample-hold
attr source radioChannelChanged
attr title "Radio channel, vector"
vector 4 Scenario.rsu1.wlan[0].radio receptionState:vector ETV
attr interpolationmode sample-hold
attr source receptionStateChanged
attr title "Radio reception state, vector"
vector 5 Scenario.rsu2.wlan[0].radio receptionState:vector ETV
attr interpolationmode sample-hold
attr source receptionStateChanged
attr title "Radio reception state, vector"
vector 6 Scenario.rsu1.wlan[0].mac.dcf.recoveryProcedure contentionWindowChanged:vector ETV
attr interpolationmode sample-hold
attr title "contention window, vector"
vector 7 Scenario.rsu2.wlan[0].mac.dcf.recoveryProcedure contentionWindowChanged:vector ETV
attr interpolationmode sample-hold
attr title "contention window, vector"
vector 8 Scenario.node[0].wlan[0].radio radioMode:vector ETV
attr interpolationmode sample-hold
attr source radioModeChanged
attr title "Radio mode, vector"
vector 9 Scenario.node[0].wlan[0].radio radioChannel:vector ETV
attr interpolationmode sample-hold
attr source radioChannelChanged
attr title "Radio channel, vector"
vector 10 Scenario.node[0].wlan[0].radio receptionState:vector ETV
attr interpolationmode sample-hold
attr source receptionStateChanged
attr title "Radio reception state, vector"
vector 11 Scenario.node[0].wlan[0].mac.dcf.recoveryProcedure contentionWindowChanged:vector ETV
attr interpolationmode sample-hold
attr title "contention window, vector"
vector 12 Scenario.node[1].wlan[0].radio radioMode:vector ETV
attr interpolationmode sample-hold
attr source radioModeChanged
attr title "Radio mode, vector"
vector 13 Scenario.node[1].wlan[0].radio radioChannel:vector ETV
attr interpolationmode sample-hold
attr source radioChannelChanged
attr title "Radio channel, vector"
vector 14 Scenario.node[1].wlan[0].radio receptionState:vector ETV
attr interpolationmode sample-hold
attr source receptionStateChanged
attr title "Radio reception state, vector"
vector 15 Scenario.node[1].wlan[0].mac.dcf.recoveryProcedure contentionWindowChanged:vector ETV
attr interpolationmode sample-hold
attr title "contention window, vector"
vector 16 Scenario.node[2].wlan[0].radio radioMode:vector ETV
attr interpolationmode sample-hold
attr source radioModeChanged
attr title "Radio mode, vector"
vector 17 Scenario.node[2].wlan[0].radio radioChannel:vector ETV
attr interpolationmode sample-hold
attr source radioChannelChanged
attr title "Radio channel, vector"
vector 18 Scenario.node[2].wlan[0].radio receptionState:vector ETV
attr interpolationmode sample-hold
attr source receptionStateChanged
attr title "Radio reception state, vector"
vector 19 Scenario.node[2].wlan[0].mac.dcf.recoveryProcedure contentionWindowChanged:vector ETV
attr interpolationmode sample-hold
attr title "contention window, vector"
vector 20 Scenario.node[3].wlan[0].radio radioMode:vector ETV
attr interpolationmode sample-hold
attr source radioModeChanged
attr title "Radio mode, vector"
vector 21 Scenario.node[3].wlan[0].radio radioChannel:vector ETV
attr interpolationmode sample-hold
attr source radioChannelChanged
attr title "Radio channel, vector"
vector 22 Scenario.node[3].wlan[0].radio receptionState:vector ETV
attr interpolationmode sample-hold
attr source receptionStateChanged
attr title "Radio reception state, vector"
vector 23 Scenario.node[3].wlan[0].mac.dcf.recoveryProcedure contentionWindowChanged:vector ETV
attr interpolationmode sample-hold
attr title "contention window, vector"
vector 24 Scenario.node[4].wlan[0].radio radioMode:vector ETV
attr interpolationmode sample-hold
attr source radioModeChanged
attr title "Radio mode, vector"
vector 25 Scenario.node[4].wlan[0].radio radioChannel:vector ETV
attr interpolationmode sample-hold
attr source radioChannelChanged
attr title "Radio channel, vector"
vector 26 Scenario.node[4].wlan[0].radio receptionState:vector ETV
attr interpolationmode sample-hold
attr source receptionStateChanged
attr title "Radio reception state, vector"
vector 27 Scenario.node[4].wlan[0].mac.dcf.recoveryProcedure contentionWindowChanged:vector ETV
attr interpolationmode sample-hold
attr title "contention window, vector"
vector 28 Scenario.node[5].wlan[0].radio radioMode:vector ETV
attr interpolationmode sample-hold
attr source radioModeChanged
attr title "Radio mode, vector"
vector 29 Scenario.node[5].wlan[0].radio radioChannel:vector ETV
attr interpolationmode sample-hold
attr source radioChannelChanged
attr title "Radio channel, vector"
vector 30 Scenario.node[5].wlan[0].radio receptionState:vector ETV
attr interpolationmode sample-hold
attr source receptionStateChanged
attr title "Radio reception state, vector"
vector 31 Scenario.node[5].wlan[0].mac.dcf.recoveryProcedure contentionWindowChanged:vector ETV
attr interpolationmode sample-hold
attr title "contention window, vector"
vector 32 Scenario.node[6].wlan[0].radio radioMode:vector ETV
attr interpolationmode sample-hold
attr source radioModeChanged
attr title "Radio mode, vector"
vector 33 Scenario.node[6].wlan[0].radio radioChannel:vector ETV
attr interpolationmode sample-hold
attr source radioChannelChanged
attr title "Radio channel, vector"
vector 34 Scenario.node[6].wlan[0].radio receptionState:vector ETV
attr interpolationmode sample-hold
attr source receptionStateChanged
attr title "Radio reception state, vector"
vector 35 Scenario.node[6].wlan[0].mac.dcf.recoveryProcedure contentionWindowChanged:vector ETV
attr interpolationmode sample-hold
attr title "contention window, vector"
vector 36 Scenario.node[7].wlan[0].radio radioMode:vector ETV
attr interpolationmode sample-hold
attr source radioModeChanged
attr title "Radio mode, vector"
vector 37 Scenario.node[7].wlan[0].radio radioChannel:vector ETV
attr interpolationmode sample-hold
attr source radioChannelChanged
attr title "Radio channel, vector"
vector 38 Scenario.node[7].wlan[0].radio receptionState:vector ETV
attr interpolationmode sample-hold
attr source receptionStateChanged
attr title "Radio reception state, vector"
vector 39 Scenario.node[7].wlan[0].mac.dcf.recoveryProcedure contentionWindowChanged:vector ETV
attr interpolationmode sample-hold
attr title "contention window, vector"
vector 40 Scenario.node[8].wlan[0].radio radioMode:vector ETV
attr interpolationmode sample-hold
attr source radioModeChanged
attr title "Radio mode, vector"
vector 41 Scenario.node[8].wlan[0].radio radioChannel:vector ETV
attr interpolationmode sample-hold
attr source radioChannelChanged
attr title "Radio channel, vector"
vector 42 Scenario.node[8].wlan[0].radio receptionState:vector ETV
attr interpolationmode sample-hold
attr source receptionStateChanged
attr title "Radio reception state, vector"
vector 43 Scenario.node[8].wlan[0].mac.dcf.recoveryProcedure contentionWindowChanged:vector ETV
attr interpolationmode sample-hold
attr title "contention window, vector"
vector 44 Scenario.node[9].wlan[0].radio radioMode:vector ETV
attr interpolationmode sample-hold
attr source radioModeChanged
attr title "Radio mode, vector"
vector 45 Scenario.node[9].wlan[0].radio radioChannel:vector ETV
attr interpolationmode sample-hold
attr source radioChannelChanged
attr title "Radio channel, vector"
vector 46 Scenario.node[9].wlan[0].radio receptionState:vector ETV
attr interpolationmode sample-hold
attr source receptionStateChanged
attr title "Radio reception state, vector"
vector 47 Scenario.node[9].wlan[0].mac.dcf.recoveryProcedure contentionWindowChanged:vector ETV
attr interpolationmode sample-hold
attr title "contention window, vector"
vector 48 Scenario.node[0].udp packetSent:vector(packetBytes) ETV
attr interpolationmode none
attr source packetSent
attr title "packets sent, vector(packetBytes)"
vector 49 Scenario.node[0].lo[0].lo rcvdPkFromHl:vector(packetBytes) ETV
attr interpolationmode none
attr source packetReceivedFromUpper
attr title "packets received from higher layer, vector(packetBytes)"
vector 50 Scenario.node[0].lo[0].lo passedUpPk:vector(packetBytes) ETV
attr interpolationmode none
attr source packetSentToUpper
attr title "packets passed to higher layer, vector(packetBytes)"
vector 51 Scenario.node[0].wlan[0].mac packetReceivedFromUpper:vector(packetBytes) ETV
attr interpolationmode none
attr title "packets received from upper layer, vector(packetBytes)"
vector 52 Scenario.node[0].wlan[0].mac.dcf.channelAccess.pendingQueue packetPushed:vector(packetBytes) ETV
attr interpolationmode none
attr title "packet pushed, vector(packetBytes)"
vector 53 Scenario.node[0].wlan[0].mac.dcf.channelAccess.pendingQueue queueLength:vector ETV
attr interpolationmode sample-hold
attr source "count(packetPushed) - count(packetPopped) - count(packetRemoved) - count(packetDropped)"
attr title "queue length, vector"
vector 54 Scenario.node[0].wlan[0].mac.dcf.channelAccess.contention backoffPeriodGenerated:vector ETV
attr interpolationmode none
attr title "backoff periods, vector"
vector 55 Scenario.node[0].wlan[0].mac.dcf.channelAccess.contention backoffActive:vector ETV
attr interpolationmode sample-hold
attr source count(backoffStarted)-count(backoffStopped)
attr title "backoff active, vector"
vector 56 Scenario.node[0].udp packetReceived:vector(packetBytes) ETV
attr interpolationmode none
attr source packetReceived
attr title "packets received, vector(packetBytes)"
vector 57 Scenario.node[0].udp droppedPkWrongPort:vector(count) ETV
attr interpolationmode none
attr source packetDropReasonIsNoPortFound(packetDropped)
attr title "packets dropped (wrong port), vector(count)"
vector 58 Scenario.node[0].wlan[0].mac.dcf.channelAccess.pendingQueue packetPopped:vector(packetBytes) ETV
attr interpolationmode none
attr title "packet popped, vector(packetBytes)"
vector 59 Scenario.node[0].wlan[0].mac.dcf.channelAccess.pendingQueue queueingTime:vector ETV
attr interpolationmode none
attr source queueingTime(packetPopped)
attr title "queueing times, vector"
attr unit s
vector 60 Scenario.node[0].wlan[0].mac.dcf.channelAccess.inProgressFrames queueLength:vector ETV
attr interpolationmode sample-hold
attr source "count(packetEnqueued) - count(packetDequeued)"
attr title "queue length, vector"
vector 61 Scenario.node[0].wlan[0].mac.dcf datarateSelected:vector ETV
attr interpolationmode none
attr title "datarates selected, vector"
vector 62 Scenario.node[0].wlan[0].mac packetSentToLower:vector(packetBytes) ETV
attr interpolationmode none
attr title "packets sent to lower layer, vector(packetBytes)"
vector 63 Scenario.node[0].wlan[0].mac.dcf frameSequenceActive:vector ETV
attr interpolationmode sample-hold
attr source count(frameSequenceStarted)-count(frameSequenceFinished)
attr title "frame sequence active, vector"
vector 64 Scenario.node[0].wlan[0].radio transmissionState:vector ETV
attr interpolationmode sample-hold
attr source transmissionStateChanged
attr title "Radio transmission state, vector"
vector 65 Scenario.node[0].wlan[0].mac.dcf packetSentToPeer:vector(packetBytes) ETV
attr interpolationmode none
attr title "packets sent, vector(packetBytes)"
vector 66 Scenario.node[0].wlan[0].mac.dcf packetSentToPeerMulticast:vector(packetBytes) ETV
attr interpolationmode none
attr source ieee80211Multicast(packetSentToPeer)
attr title "packets sent: multicast, vector(packetBytes)"
vector 67 Scenario.node[0].wlan[0].mac.dcf packetSentToPeerWithoutRetry:vector(packetBytes) ETV
attr interpolationmode none
attr source ieee80211NotRetry(packetSentToPeer)
attr title "packets sent: without retry, vector(packetBytes)"
vector 68 Scenario.node[0].wlan[0].mac.dcf.channelAccess.inProgressFrames queueingTime:vector ETV
attr interpolationmode none
attr source queueingTime(packetDequeued)
attr title "queueing times, vector"
vector 69 Scenario.node[2].wlan[0].mac packetReceivedFromLower:vector(packetBytes) ETV
attr interpolationmode none
attr title "packets received from lower layer, vector(packetBytes)"
vector 70 Scenario.node[2].wlan[0].mac.dcf packetReceivedFromPeer:vector(packetBytes) ETV
attr interpolationmode none
attr title "packets received, vector(packetBytes)"
vector 71 Scenario.node[2].wlan[0].mac.dcf packetReceivedFromPeerMulticast:vector(packetBytes) ETV
attr interpolationmode none
attr source ieee80211Multicast(packetReceivedFromPeer)
attr title "packets received: multicast, vector(packetBytes)"
vector 72 Scenario.node[2].wlan[0].mac.dcf packetReceivedFromPeerWithoutRetry:vector(packetBytes) ETV
attr interpolationmode none
attr source ieee80211NotRetry(packetReceivedFromPeer)
attr title "packets received: without retry, vector(packetBytes)"
vector 73 Scenario.node[2].wlan[0].mac packetSentToUpper:vector(packetBytes) ETV
attr interpolationmode none
attr title "packets sent to upper layer, vector(packetBytes)"
vector 74 Scenario.node[2].udp packetReceived:vector(packetBytes) ETV
attr interpolationmode none
attr source packetReceived
attr title "packets received, vector(packetBytes)"
vector 75 Scenario.node[2].udp droppedPkWrongPort:vector(count) ETV
attr interpolationmode none
attr source packetDropReasonIsNoPortFound(packetDropped)
attr title "packets dropped (wrong port), vector(count)"
vector 76 Scenario.rsu2.wlan[0].mac packetReceivedFromLower:vector(packetBytes) ETV
attr interpolationmode none
attr title "packets received from lower layer, vector(packetBytes)"
vector 77 Scenario.rsu2.wlan[0].mac.dcf packetReceivedFromPeer:vector(packetBytes) ETV
attr interpolationmode none
attr title "packets received, vector(packetBytes)"
vector 78 Scenario.rsu2.wlan[0].mac.dcf packetReceivedFromPeerMulticast:vector(packetBytes) ETV
attr interpolationmode none
attr source ieee80211Multicast(packetReceivedFromPeer)
attr title "packets received: multicast, vector(packetBytes)"
vector 79 Scenario.rsu2.wlan[0].mac.dcf packetReceivedFromPeerWithoutRetry:vector(packetBytes) ETV
attr interpolationmode none
attr source ieee80211NotRetry(packetReceivedFromPeer)
attr title "packets received: without retry, vector(packetBytes)"
vector 80 Scenario.rsu2.wlan[0].mac packetSentToUpper:vector(packetBytes) ETV
attr interpolationmode none
attr title "packets sent to upper layer, vector(packetBytes)"
vector 81 Scenario.rsu2.udp packetReceived:vector(packetBytes) ETV
attr interpolationmode none
attr source packetReceived
attr title "packets received, vector(packetBytes)"
vector 82 Scenario.rsu2.udp passedUpPk:vector(count) ETV
attr interpolationmode none
attr source packetSentToUpper
attr title "packets passed up, vector(count)"
vector 83 Scenario.rsu2.app[0] packetReceived:vector(packetBytes) ETV
attr interpolationmode none
attr source packetReceived
attr title "packets received, vector(packetBytes)"
vector 84 Scenario.rsu2.udp packetSent:vector(packetBytes) ETV
attr interpolationmode none
attr source packetSent
attr title "packets sent, vector(packetBytes)"
vector 85 Scenario.rsu2.lo[0].lo rcvdPkFromHl:vector(packetBytes) ETV
attr interpolationmode none
attr source packetReceivedFromUpper
attr title "packets received from higher layer, vector(packetBytes)"
vector 86 Scenario.rsu2.lo[0].lo passedUpPk:vector(packetBytes) ETV
attr interpolationmode none
attr source packetSentToUpper
attr title "packets passed to higher layer, vector(packetBytes)"
vector 87 Scenario.rsu2.wlan[0].mac packetReceivedFromUpper:vector(packetBytes) ETV
attr interpolationmode none
attr title "packets received from upper layer, vector(packetBytes)"
vector 88 Scenario.rsu2.wlan[0].mac.dcf.channelAccess.pendingQueue packetPushed:vector(packetBytes) ETV
attr interpolationmode none
attr title "packet pushed, vector(packetBytes)"
vector 89 Scenario.rsu2.wlan[0].mac.dcf.channelAccess.pendingQueue queueLength:vector ETV
attr interpolationmode sample-hold
attr source "count(packetPushed) - count(packetPopped) - count(packetRemoved) - count(packetDropped)"
attr title "queue length, vector"
vector 90 Scenario.rsu2.wlan[0].mac.dcf.channelAccess.contention backoffPeriodGenerated:vector ETV
attr interpolationmode none
attr title "backoff periods, vector"
vector 91 Scenario.rsu2.wlan[0].mac.dcf.channelAccess.contention backoffActive:vector ETV
attr interpolationmode sample-hold
attr source count(backoffStarted)-count(backoffStopped)
attr title "backoff active, vector"
vector 92 Scenario.rsu2.udp droppedPkWrongPort:vector(count) ETV
attr interpolationmode none
attr source packetDropReasonIsNoPortFound(packetDropped)
attr title "packets dropped (wrong port), vector(count)"
vector 93 Scenario.node[3].wlan[0].mac packetReceivedFromLower:vector(packetBytes) ETV
attr interpolationmode none
attr title "packets received from lower layer, vector(packetBytes)"
vector 94 Scenario.node[3].wlan[0].mac.dcf packetReceivedFromPeer:vector(packetBytes) ETV
attr interpolationmode none
attr title "packets received, vector(packetBytes)"
vector 95 Scenario.node[3].wlan[0].mac.dcf packetReceivedFromPeerMulticast:vector(packetBytes) ETV
attr interpolationmode none
attr source ieee80211Multicast(packetReceivedFromPeer)
attr title "packets received: multicast, vector(packetBytes)"
vector 96 Scenario.node[3].wlan[0].mac.dcf packetReceivedFromPeerWithoutRetry:vector(packetBytes) ETV
attr interpolationmode none
attr source ieee80211NotRetry(packetReceivedFromPeer)
attr title "packets received: without retry, vector(packetBytes)"
vector 97 Scenario.node[3].wlan[0].mac packetSentToUpper:vector(packetBytes) ETV
attr interpolationmode none
attr title "packets sent to upper layer, vector(packetBytes)"
vector 98 Scenario.node[3].udp packetReceived:vector(packetBytes) ETV
attr interpolationmode none
attr source packetReceived
attr title "packets received, vector(packetBytes)"
vector 99 Scenario.node[3].udp droppedPkWrongPort:vector(count) ETV
attr interpolationmode none
attr source packetDropReasonIsNoPortFound(packetDropped)
attr title "packets dropped (wrong port), vector(count)"
vector 100 Scenario.rsu1.wlan[0].mac packetReceivedFromLower:vector(packetBytes) ETV
attr interpolationmode none
attr title "packets received from lower layer, vector(packetBytes)"
vector 101 Scenario.rsu1.wlan[0].mac.dcf packetReceivedFromPeer:vector(packetBytes) ETV
attr interpolationmode none
attr title "packets received, vector(packetBytes)"
vector 102 Scenario.rsu1.wlan[0].mac.dcf packetReceivedFromPeerMulticast:vector(packetBytes) ETV
attr interpolationmode none
attr source ieee80211Multicast(packetReceivedFromPeer)
attr title "packets received: multicast, vector(packetBytes)"
vector 103 Scenario.rsu1.wlan[0].mac.dcf packetReceivedFromPeerWithoutRetry:vector(packetBytes) ETV
attr interpolationmode none
attr source ieee80211NotRetry(packetReceivedFromPeer)
attr title "packets received: without retry, vector(packetBytes)"
vector 104 Scenario.rsu1.wlan[0].mac packetSentToUpper:vector(packetBytes) ETV
attr interpolationmode none
attr title "packets sent to upper layer, vector(packetBytes)"
vector 105 Scenario.rsu1.udp packetReceived:vector(packetBytes) ETV
attr interpolationmode none
attr source packetReceived
attr title "packets received, vector(packetBytes)"
vector 106 Scenario.rsu1.udp passedUpPk:vector(count) ETV
attr interpolationmode none
attr source packetSentToUpper
attr title "packets passed up, vector(count)"
vector 107 Scenario.rsu1.app[0] packetReceived:vector(packetBytes) ETV
attr interpolationmode none
attr source packetReceived
attr title "packets received, vector(packetBytes)"
vector 108 Scenario.rsu1.udp packetSent:vector(packetBytes) ETV
attr interpolationmode none
attr source packetSent
attr title "packets sent, vector(packetBytes)"
vector 109 Scenario.rsu1.lo[0].lo rcvdPkFromHl:vector(packetBytes) ETV
attr interpolationmode none
attr source packetReceivedFromUpper
attr title "packets received from higher layer, vector(packetBytes)"
vector 110 Scenario.rsu1.lo[0].lo passedUpPk:vector(packetBytes) ETV
attr interpolationmode none
attr source packetSentToUpper
attr title "packets passed to higher layer, vector(packetBytes)"
vector 111 Scenario.rsu1.wlan[0].mac packetReceivedFromUpper:vector(packetBytes) ETV
attr interpolationmode none
attr title "packets received from upper layer, vector(packetBytes)"
vector 112 Scenario.rsu1.wlan[0].mac.dcf.channelAccess.pendingQueue packetPushed:vector(packetBytes) ETV
attr interpolationmode none
attr title "packet pushed, vector(packetBytes)"
vector 113 Scenario.rsu1.wlan[0].mac.dcf.channelAccess.pendingQueue queueLength:vector ETV
attr interpolationmode sample-hold
attr source "count(packetPushed) - count(packetPopped) - count(packetRemoved) - count(packetDropped)"
attr title "queue length, vector"
vector 114 Scenario.rsu1.wlan[0].mac.dcf.channelAccess.contention backoffPeriodGenerated:vector ETV
attr interpolationmode none
attr title "backoff periods, vector"
vector 115 Scenario.rsu1.wlan[0].mac.dcf.channelAccess.contention backoffActive:vector ETV
attr interpolationmode sample-hold
attr source count(backoffStarted)-count(backoffStopped)
attr title "backoff active, vector"
vector 116 Scenario.rsu1.udp droppedPkWrongPort:vector(count) ETV
attr interpolationmode none
attr source packetDropReasonIsNoPortFound(packetDropped)
attr title "packets dropped (wrong port), vector(count)"
vector 117 Scenario.rsu2.wlan[0].mac.dcf.channelAccess.pendingQueue packetPopped:vector(packetBytes) ETV
attr interpolationmode none
attr title "packet popped, vector(packetBytes)"
vector 118 Scenario.rsu2.wlan[0].mac.dcf.channelAccess.pendingQueue queueingTime:vector ETV
attr interpolationmode none
attr source queueingTime(packetPopped)
attr title "queueing times, vector"
attr unit s
vector 119 Scenario.rsu2.wlan[0].mac.dcf.channelAccess.inProgressFrames queueLength:vector ETV
attr interpolationmode sample-hold
attr source "count(packetEnqueued) - count(packetDequeued)"
attr title "queue length, vector"
vector 120 Scenario.rsu2.wlan[0].mac.dcf datarateSelected:vector ETV
attr interpolationmode none
attr title "datarates selected, vector"
vector 121 Scenario.rsu2.wlan[0].mac packetSentToLower:vector(packetBytes) ETV
attr interpolationmode none
attr title "packets sent to lower layer, vector(packetBytes)"
vector 122 Scenario.rsu2.wlan[0].mac.dcf frameSequenceActive:vector ETV
attr interpolationmode sample-hold
attr source count(frameSequenceStarted)-count(frameSequenceFinished)
attr title "frame sequence active, vector"
vector 123 Scenario.rsu2.wlan[0].radio transmissionState:vector ETV
attr interpolationmode sample-hold
attr source transmissionStateChanged
attr title "Radio transmission state, vector"
vector 124 Scenario.rsu1.wlan[0].mac.dcf.channelAccess.pendingQueue packetPopped:vector(packetBytes) ETV
attr interpolationmode none
attr title "packet popped, vector(packetBytes)"
vector 125 Scenario.rsu1.wlan[0].mac.dcf.channelAccess.pendingQueue queueingTime:vector ETV
attr interpolationmode none
attr source queueingTime(packetPopped)
attr title "queueing times, vector"
attr unit s
vector 126 Scenario.rsu1.wlan[0].mac.dcf.channelAccess.inProgressFrames queueLength:vector ETV
attr interpolationmode sample-hold
attr source "count(packetEnqueued) - count(packetDequeued)"
attr title "queue length, vector"
vector 127 Scenario.rsu1.wlan[0].mac.dcf datarateSelected:vector ETV
attr interpolationmode none
attr title "datarates selected, vector"
vector 128 Scenario.rsu1.wlan[0].mac packetSentToLower:vector(packetBytes) ETV
attr interpolationmode none
attr title "packets sent to lower layer, vector(packetBytes)"
vector 129 Scenario.rsu1.wlan[0].mac.dcf frameSequenceActive:vector ETV
attr interpolationmode sample-hold
attr source count(frameSequenceStarted)-count(frameSequenceFinished)
attr title "frame sequence active, vector"
vector 130 Scenario.rsu1.wlan[0].radio transmissionState:vector ETV
attr interpolationmode sample-hold
attr source transmissionStateChanged
attr title "Radio transmission state, vector"
vector 131 Scenario.rsu2.wlan[0].mac.dcf packetSentToPeer:vector(packetBytes) ETV
attr interpolationmode none
attr title "packets sent, vector(packetBytes)"
vector 132 Scenario.rsu2.wlan[0].mac.dcf packetSentToPeerMulticast:vector(packetBytes) ETV
attr interpolationmode none
attr source ieee80211Multicast(packetSentToPeer)
attr title "packets sent: multicast, vector(packetBytes)"
vector 133 Scenario.rsu2.wlan[0].mac.dcf packetSentToPeerWithoutRetry:vector(packetBytes) ETV
attr interpolationmode none
attr source ieee80211NotRetry(packetSentToPeer)
attr title "packets sent: without retry, vector(packetBytes)"
vector 134 Scenario.rsu2.wlan[0].mac.dcf.channelAccess.inProgressFrames queueingTime:vector ETV
attr interpolationmode none
attr source queueingTime(packetDequeued)
attr title "queueing times, vector"
vector 135 Scenario.rsu1.wlan[0].mac.dcf packetSentToPeer:vector(packetBytes) ETV
attr interpolationmode none
attr title "packets sent, vector(packetBytes)"
vector 136 Scenario.rsu1.wlan[0].mac.dcf packetSentToPeerMulticast:vector(packetBytes) ETV
attr interpolationmode none
attr source ieee80211Multicast(packetSentToPeer)
attr title "packets sent: multicast, vector(packetBytes)"
vector 137 Scenario.rsu1.wlan[0].mac.dcf packetSentToPeerWithoutRetry:vector(packetBytes) ETV
attr interpolationmode none
attr source ieee80211NotRetry(packetSentToPeer)
attr title "packets sent: without retry, vector(packetBytes)"
vector 138 Scenario.rsu1.wlan[0].mac.dcf.channelAccess.inProgressFrames queueingTime:vector ETV
attr interpolationmode none
attr source queueingTime(packetDequeued)
attr title "queueing times, vector"
vector 139 Scenario.node[0].wlan[0].mac packetReceivedFromLower:vector(packetBytes) ETV
attr interpolationmode none
attr title "packets received from lower layer, vector(packetBytes)"
vector 140 Scenario.node[0].wlan[0].mac packetDrop:vector(packetBytes) ETV
attr interpolationmode none
attr source packetDropped
attr title "packet drops, vector(packetBytes)"
vector 141 Scenario.node[0].wlan[0].mac packetDropIncorrectlyReceived:vector(packetBytes) ETV
attr interpolationmode none
attr source packetDropReasonIsIncorrectlyReceived(packetDropped)
attr title "packet drops: incorrectly received, vector(packetBytes)"
vector 142 Scenario.node[6].wlan[0].mac packetReceivedFromLower:vector(packetBytes) ETV
attr interpolationmode none
attr title "packets received from lower layer, vector(packetBytes)"
vector 143 Scenario.node[6].wlan[0].mac.dcf packetReceivedFromPeer:vector(packetBytes) ETV
attr interpolationmode none
attr title "packets received, vector(packetBytes)"
vector 144 Scenario.node[6].wlan[0].mac.dcf packetReceivedFromPeerMulticast:vector(packetBytes) ETV
attr interpolationmode none
attr source ieee80211Multicast(packetReceivedFromPeer)
attr title "packets received: multicast, vector(packetBytes)"
vector 145 Scenario.node[6].wlan[0].mac.dcf packetReceivedFromPeerWithoutRetry:vector(packetBytes) ETV
attr interpolationmode none
attr source ieee80211NotRetry(packetReceivedFromPeer)
attr title "packets received: without retry, vector(packetBytes)"
vector 146 Scenario.node[6].wlan[0].mac packetSentToUpper:vector(packetBytes) ETV
attr interpolationmode none
attr title "packets sent to upper layer, vector(packetBytes)"
vector 147 Scenario.node[6].udp packetReceived:vector(packetBytes) ETV
attr interpolationmode none
attr source packetReceived
attr title "packets received, vector(packetBytes)"
vector 148 Scenario.node[6].udp droppedPkWrongPort:vector(count) ETV
attr interpolationmode none
attr source packetDropReasonIsNoPortFound(packetDropped)
attr title "packets dropped (wrong port), vector(count)"
vector 149 Scenario.node[2].wlan[0].mac packetDrop:vector(packetBytes) ETV
attr interpolationmode none
attr source packetDropped
attr title "packet drops, vector(packetBytes)"
vector 150 Scenario.node[2].wlan[0].mac packetDropIncorrectlyReceived:vector(packetBytes) ETV
attr interpolationmode none
attr source packetDropReasonIsIncorrectlyReceived(packetDropped)
attr title "packet drops: incorrectly received, vector(packetBytes)"
vector 151 Scenario.node[3].wlan[0].mac packetDrop:vector(packetBytes) ETV
attr interpolationmode none
attr source packetDropped
attr title "packet drops, vector(packetBytes)"
vector 152 Scenario.node[3].wlan[0].mac packetDropIncorrectlyReceived:vector(packetBytes) ETV
attr interpolationmode none
attr source packetDropReasonIsIncorrectlyReceived(packetDropped)
attr title "packet drops: incorrectly received, vector(packetBytes)"
vector 153 Scenario.node[2].app[0] throughput:vector ETV
attr source throughput(packetReceived)
attr title "throughput, vector"
attr unit bps
69	784	71.000152351245	158
69	868	71.000558309945	158
73	784	71.000152351245	130
150	868	71.000558309945	158
149	868	71.000558309945	158
72	784	71.000152351245	158
71	784	71.000152351245	158
70	784	71.000152351245	158
19	66	5.1	15
18	66	5.1	1
18	770	71.000000351245	3
18	783	71.000152351245	1
18	836	71.000406309945	3
18	867	71.000558309945	2
18	872	71.000558699766	1
16	66	5.1	0
16	66	5.1	0
16	66	5.1	2
17	66	5.1	3
74	787	71.000152351245	108
75	787	71.000152351245	1
153	1363	0.1	0
153	1363	0.2	0
153	1363	0.3	0
153	1363	0.4	0
153	1363	0.5	0
153	1363	0.6	0
153	1363	0.7	0
153	1363	0.8	0
153	1363	0.9	0
153	1363	1	0
153	1363	1.1	0
153	1363	1.2	0
153	1363	1.3	0
153	1363	1.4	0
153	1363	1.5	0
153	1363	1.6	0
153	1363	1.7	0
153	1363	1.8	0
153	1363	1.9	0
153	1363	2	0
153	1363	2.1	0
153	1363	2.2	0
153	1363	2.3	0
153	1363	2.4	0
153	1363	2.5	0
153	1363	2.6	0
153	1363	2.7	0
153	1363	2.8	0
153	1363	2.9	0
153	1363	3	0
153	1363	3.1	0
153	1363	3.2	0
153	1363	3.3	0
153	1363	3.4	0
153	1363	3.5	0
153	1363	3.6	0
153	1363	3.7	0
153	1363	3.8	0
153	1363	3.9	0
153	1363	4	0
153	1363	4.1	0
153	1363	4.2	0
153	1363	4.3	0
153	1363	4.4	0
153	1363	4.5	0
153	1363	4.6	0
153	1363	4.7	0
153	1363	4.8	0
153	1363	4.9	0
153	1363	5	0
153	1363	5.1	0
153	1363	5.2	0
153	1363	5.3	0
153	1363	5.4	0
153	1363	5.5	0
153	1363	5.6	0
153	1363	5.7	0
153	1363	5.8	0
153	1363	5.9	0
153	1363	6	0
153	1363	6.1	0
153	1363	6.2	0
153	1363	6.3	0
153	1363	6.4	0
153	1363	6.5	0
153	1363	6.6	0
153	1363	6.7	0
153	1363	6.8	0
153	1363	6.9	0
153	1363	7	0
153	1363	7.1	0
153	1363	7.2	0
153	1363	7.3	0
153	1363	7.4	0
153	1363	7.5	0
153	1363	7.6	0
153	1363	7.7	0
153	1363	7.8	0
153	1363	7.9	0
153	1363	8	0
153	1363	8.1	0
153	1363	8.2	0
153	1363	8.3	0
153	1363	8.4	0
153	1363	8.5	0
153	1363	8.6	0
153	1363	8.7	0
153	1363	8.8	0
153	1363	8.9	0
153	1363	9	0
153	1363	9.1	0
153	1363	9.2	0
153	1363	9.3	0
153	1363	9.4	0
153	1363	9.5	0
153	1363	9.6	0
153	1363	9.7	0
153	1363	9.8	0
153	1363	9.9	0
153	1363	10	0
153	1363	10.1	0
153	1363	10.2	0
153	1363	10.3	0
153	1363	10.4	0
153	1363	10.5	0
153	1363	10.6	0
153	1363	10.7	0
153	1363	10.8	0
153	1363	10.9	0
153	1363	11	0
153	1363	11.1	0
153	1363	11.2	0
153	1363	11.3	0
153	1363	11.4	0
153	1363	11.5	0
153	1363	11.6	0
153	1363	11.7	0
153	1363	11.8	0
153	1363	11.9	0
153	1363	12	0
153	1363	12.1	0
153	1363	12.2	0
153	1363	12.3	0
153	1363	12.4	0
153	1363	12.5	0
153	1363	12.6	0
153	1363	12.7	0
153	1363	12.8	0
153	1363	12.9	0
153	1363	13	0
153	1363	13.1	0
153	1363	13.2	0
153	1363	13.3	0
153	1363	13.4	0
153	1363	13.5	0
153	1363	13.6	0
153	1363	13.7	0
153	1363	13.8	0
153	1363	13.9	0
153	1363	14	0
153	1363	14.1	0
153	1363	14.2	0
153	1363	14.3	0
153	1363	14.4	0
153	1363	14.5	0
153	1363	14.6	0
153	1363	14.7	0
153	1363	14.8	0
153	1363	14.9	0
153	1363	15	0
153	1363	15.1	0
153	1363	15.2	0
153	1363	15.3	0
153	1363	15.4	0
153	1363	15.5	0
153	1363	15.6	0
153	1363	15.7	0
153	1363	15.8	0
153	1363	15.9	0
153	1363	16	0
153	1363	16.1	0
153	1363	16.2	0
153	1363	16.3	0
153	1363	16.4	0
153	1363	16.5	0
153	1363	16.6	0
153	1363	16.7	0
153	1363	16.8	0
153	1363	16.9	0
153	1363	17	0
153	1363	17.1	0
153	1363	17.2	0
153	1363	17.3	0
153	1363	17.4	0
153	1363	17.5	0
153	1363	17.6	0
153	1363	17.7	0
153	1363	17.8	0
153	1363	17.9	0
153	1363	18	0
153	1363	18.1	0
153	1363	18.2	0
153	1363	18.3	0
153	1363	18.4	0
153	1363	18.5	0
153	1363	18.6	0
153	1363	18.7	0
153	1363	18.8	0
153	1363	18.9	0
153	1363	19	0
153	1363	19.1	0
153	1363	19.2	0
153	1363	19.3	0
153	1363	19.4	0
153	1363	19.5	0
153	1363	19.6	0
153	1363	19.7	0
153	1363	19.8	0
153	1363	19.9	0
153	1363	20	0
153	1363	20.1	0
153	1363	20.2	0
153	1363	20.3	0
153	1363	20.4	0
153	1363	20.5	0
153	1363	20.6	0
153	1363	20.7	0
153	1363	20.8	0
153	1363	20.9	0
153	1363	21	0
153	1363	21.1	0
153	1363	21.2	0
153	1363	21.3	0
153	1363	21.4	0
153	1363	21.5	0
153	1363	21.6	0
153	1363	21.7	0
153	1363	21.8	0
153	1363	21.9	0
153	1363	22	0
153	1363	22.1	0
153	1363	22.2	0
153	1363	22.3	0
153	1363	22.4	0
153	1363	22.5	0
153	1363	22.6	0
153	1363	22.7	0
153	1363	22.8	0
153	1363	22.9	0
153	1363	23	0
153	1363	23.1	0
153	1363	23.2	0
153	1363	23.3	0
153	1363	23.4	0
153	1363	23.5	0
153	1363	23.6	0
153	1363	23.7	0
153	1363	23.8	0
153	1363	23.9	0
153	1363	24	0
153	1363	24.1	0
153	1363	24.2	0
153	1363	24.3	0
153	1363	24.4	0
153	1363	24.5	0
153	1363	24.6	0
153	1363	24.7	0
153	1363	24.8	0
153	1363	24.9	0
153	1363	25	0
153	1363	25.1	0
153	1363	25.2	0
153	1363	25.3	0
153	1363	25.4	0
153	1363	25.5	0
153	1363	25.6	0
153	1363	25.7	0
153	1363	25.8	0
153	1363	25.9	0
153	1363	26	0
153	1363	26.1	0
153	1363	26.2	0
153	1363	26.3	0
153	1363	26.4	0
153	1363	26.5	0
153	1363	26.6	0
153	1363	26.7	0
153	1363	26.8	0
153	1363	26.9	0
153	1363	27	0
153	1363	27.1	0
153	1363	27.2	0
153	1363	27.3	0
153	1363	27.4	0
153	1363	27.5	0
153	1363	27.6	0
153	1363	27.7	0
153	1363	27.8	0
153	1363	27.9	0
153	1363	28	0
153	1363	28.1	0
153	1363	28.2	0
153	1363	28.3	0
153	1363	28.4	0
153	1363	28.5	0
153	1363	28.6	0
153	1363	28.7	0
153	1363	28.8	0
153	1363	28.9	0
153	1363	29	0
153	1363	29.1	0
153	1363	29.2	0
153	1363	29.3	0
153	1363	29.4	0
153	1363	29.5	0
153	1363	29.6	0
153	1363	29.7	0
153	1363	29.8	0
153	1363	29.9	0
153	1363	30	0
153	1363	30.1	0
153	1363	30.2	0
153	1363	30.3	0
153	1363	30.4	0
153	1363	30.5	0
153	1363	30.6	0
153	1363	30.7	0
153	1363	30.8	0
153	1363	30.9	0
153	1363	31	0
153	1363	31.1	0
153	1363	31.2	0
153	1363	31.3	0
153	1363	31.4	0
153	1363	31.5	0
153	1363	31.6	0
153	1363	31.7	0
153	1363	31.8	0
153	1363	31.9	0
153	1363	32	0
153	1363	32.1	0
153	1363	32.2	0
153	1363	32.3	0
153	1363	32.4	0
153	1363	32.5	0
153	1363	32.6	0
153	1363	32.7	0
153	1363	32.8	0
153	1363	32.9	0
153	1363	33	0
153	1363	33.1	0
153	1363	33.2	0
153	1363	33.3	0
153	1363	33.4	0
153	1363	33.5	0
153	1363	33.6	0
153	1363	33.7	0
153	1363	33.8	0
153	1363	33.9	0
153	1363	34	0
153	1363	34.1	0
153	1363	34.2	0
153	1363	34.3	0
153	1363	34.4	0
153	1363	34.5	0
153	1363	34.6	0
153	1363	34.7	0
153	1363	34.8	0
153	1363	34.9	0
153	1363	35	0
153	1363	35.1	0
153	1363	35.2	0
153	1363	35.3	0
153	1363	35.4	0
153	1363	35.5	0
153	1363	35.6	0
153	1363	35.7	0
153	1363	35.8	0
153	1363	35.9	0
153	1363	36	0
153	1363	36.1	0
153	1363	36.2	0
153	1363	36.3	0
153	1363	36.4	0
153	1363	36.5	0
153	1363	36.6	0
153	1363	36.7	0
153	1363	36.8	0
153	1363	36.9	0
153	1363	37	0
153	1363	37.1	0
153	1363	37.2	0
153	1363	37.3	0
153	1363	37.4	0
153	1363	37.5	0
153	1363	37.6	0
153	1363	37.7	0
153	1363	37.8	0
153	1363	37.9	0
153	1363	38	0
153	1363	38.1	0
153	1363	38.2	0
153	1363	38.3	0
153	1363	38.4	0
153	1363	38.5	0
153	1363	38.6	0
153	1363	38.7	0
153	1363	38.8	0
153	1363	38.9	0
153	1363	39	0
153	1363	39.1	0
153	1363	39.2	0
153	1363	39.3	0
153	1363	39.4	0
153	1363	39.5	0
153	1363	39.6	0
153	1363	39.7	0
153	1363	39.8	0
153	1363	39.9	0
153	1363	40	0
153	1363	40.1	0
153	1363	40.2	0
153	1363	40.3	0
153	1363	40.4	0
153	1363	40.5	0
153	1363	40.6	0
153	1363	40.7	0
153	1363	40.8	0
153	1363	40.9	0
153	1363	41	0
153	1363	41.1	0
153	1363	41.2	0
153	1363	41.3	0
153	1363	41.4	0
153	1363	41.5	0
153	1363	41.6	0
153	1363	41.7	0
153	1363	41.8	0
153	1363	41.9	0
153	1363	42	0
153	1363	42.1	0
153	1363	42.2	0
153	1363	42.3	0
153	1363	42.4	0
153	1363	42.5	0
153	1363	42.6	0
153	1363	42.7	0
153	1363	42.8	0
153	1363	42.9	0
153	1363	43	0
153	1363	43.1	0
153	1363	43.2	0
153	1363	43.3	0
153	1363	43.4	0
153	1363	43.5	0
153	1363	43.6	0
153	1363	43.7	0
153	1363	43.8	0
153	1363	43.9	0
153	1363	44	0
153	1363	44.1	0
153	1363	44.2	0
153	1363	44.3	0
153	1363	44.4	0
153	1363	44.5	0
153	1363	44.6	0
153	1363	44.7	0
153	1363	44.8	0
153	1363	44.9	0
153	1363	45	0
153	1363	45.1	0
153	1363	45.2	0
153	1363	45.3	0
153	1363	45.4	0
153	1363	45.5	0
153	1363	45.6	0
153	1363	45.7	0
153	1363	45.8	0
153	1363	45.9	0
153	1363	46	0
153	1363	46.1	0
153	1363	46.2	0
153	1363	46.3	0
153	1363	46.4	0
153	1363	46.5	0
153	1363	46.6	0
153	1363	46.7	0
153	1363	46.8	0
153	1363	46.9	0
153	1363	47	0
153	1363	47.1	0
153	1363	47.2	0
153	1363	47.3	0
153	1363	47.4	0
153	1363	47.5	0
153	1363	47.6	0
153	1363	47.7	0
153	1363	47.8	0
153	1363	47.9	0
153	1363	48	0
153	1363	48.1	0
153	1363	48.2	0
153	1363	48.3	0
153	1363	48.4	0
153	1363	48.5	0
153	1363	48.6	0
153	1363	48.7	0
153	1363	48.8	0
153	1363	48.9	0
153	1363	49	0
153	1363	49.1	0
153	1363	49.2	0
153	1363	49.3	0
153	1363	49.4	0
153	1363	49.5	0
153	1363	49.6	0
153	1363	49.7	0
153	1363	49.8	0
153	1363	49.9	0
153	1363	50	0
153	1363	50.1	0
153	1363	50.2	0
153	1363	50.3	0
153	1363	50.4	0
153	1363	50.5	0
153	1363	50.6	0
153	1363	50.7	0
153	1363	50.8	0
153	1363	50.9	0
153	1363	51	0
153	1363	51.1	0
153	1363	51.2	0
153	1363	51.3	0
153	1363	51.4	0
153	1363	51.5	0
153	1363	51.6	0
153	1363	51.7	0
153	1363	51.8	0
153	1363	51.9	0
153	1363	52	0
153	1363	52.1	0
153	1363	52.2	0
153	1363	52.3	0
153	1363	52.4	0
153	1363	52.5	0
153	1363	52.6	0
153	1363	52.7	0
153	1363	52.8	0
153	1363	52.9	0
153	1363	53	0
153	1363	53.1	0
153	1363	53.2	0
153	1363	53.3	0
153	1363	53.4	0
153	1363	53.5	0
153	1363	53.6	0
153	1363	53.7	0
153	1363	53.8	0
153	1363	53.9	0
153	1363	54	0
153	1363	54.1	0
153	1363	54.2	0
153	1363	54.3	0
153	1363	54.4	0
153	1363	54.5	0
153	1363	54.6	0
153	1363	54.7	0
153	1363	54.8	0
153	1363	54.9	0
153	1363	55	0
153	1363	55.1	0
153	1363	55.2	0
153	1363	55.3	0
153	1363	55.4	0
153	1363	55.5	0
153	1363	55.6	0
153	1363	55.7	0
153	1363	55.8	0
153	1363	55.9	0
153	1363	56	0
153	1363	56.1	0
153	1363	56.2	0
153	1363	56.3	0
153	1363	56.4	0
153	1363	56.5	0
153	1363	56.6	0
153	1363	56.7	0
153	1363	56.8	0
153	1363	56.9	0
153	1363	57	0
153	1363	57.1	0
153	1363	57.2	0
153	1363	57.3	0
153	1363	57.4	0
153	1363	57.5	0
153	1363	57.6	0
153	1363	57.7	0
153	1363	57.8	0
153	1363	57.9	0
153	1363	58	0
153	1363	58.1	0
153	1363	58.2	0
153	1363	58.3	0
153	1363	58.4	0
153	1363	58.5	0
153	1363	58.6	0
153	1363	58.7	0
153	1363	58.8	0
153	1363	58.9	0
153	1363	59	0
153	1363	59.1	0
153	1363	59.2	0
153	1363	59.3	0
153	1363	59.4	0
153	1363	59.5	0
153	1363	59.6	0
153	1363	59.7	0
153	1363	59.8	0
153	1363	59.9	0
153	1363	60	0
153	1363	60.1	0
153	1363	60.2	0
153	1363	60.3	0
153	1363	60.4	0
153	1363	60.5	0
153	1363	60.6	0
153	1363	60.7	0
153	1363	60.8	0
153	1363	60.9	0
153	1363	61	0
153	1363	61.1	0
153	1363	61.2	0
153	1363	61.3	0
153	1363	61.4	0
153	1363	61.5	0
153	1363	61.6	0
153	1363	61.7	0
153	1363	61.8	0
153	1363	61.9	0
153	1363	62	0
153	1363	62.1	0
153	1363	62.2	0
153	1363	62.3	0
153	1363	62.4	0
153	1363	62.5	0
153	1363	62.6	0
153	1363	62.7	0
153	1363	62.8	0
153	1363	62.9	0
153	1363	63	0
153	1363	63.1	0
153	1363	63.2	0
153	1363	63.3	0
153	1363	63.4	0
153	1363	63.5	0
153	1363	63.6	0
153	1363	63.7	0
153	1363	63.8	0
153	1363	63.9	0
153	1363	64	0
153	1363	64.1	0
153	1363	64.2	0
153	1363	64.3	0
153	1363	64.4	0
153	1363	64.5	0
153	1363	64.6	0
153	1363	64.7	0
153	1363	64.8	0
153	1363	64.9	0
153	1363	65	0
153	1363	65.1	0
153	1363	65.2	0
153	1363	65.3	0
153	1363	65.4	0
153	1363	65.5	0
153	1363	65.6	0
153	1363	65.7	0
153	1363	65.8	0
153	1363	65.9	0
153	1363	66	0
153	1363	66.1	0
153	1363	66.2	0
153	1363	66.3	0
153	1363	66.4	0
153	1363	66.5	0
153	1363	66.6	0
153	1363	66.7	0
153	1363	66.8	0
153	1363	66.9	0
153	1363	67	0
153	1363	67.1	0
153	1363	67.2	0
153	1363	67.3	0
153	1363	67.4	0
153	1363	67.5	0
153	1363	67.6	0
153	1363	67.7	0
153	1363	67.8	0
153	1363	67.9	0
153	1363	68	0
153	1363	68.1	0
153	1363	68.2	0
153	1363	68.3	0
153	1363	68.4	0
153	1363	68.5	0
153	1363	68.6	0
153	1363	68.7	0
153	1363	68.8	0
153	1363	68.9	0
153	1363	69	0
153	1363	69.1	0
153	1363	69.2	0
153	1363	69.3	0
153	1363	69.4	0
153	1363	69.5	0
153	1363	69.6	0
153	1363	69.7	0
153	1363	69.8	0
153	1363	69.9	0
153	1363	70	0
153	1363	70.1	0
153	1363	70.2	0
153	1363	70.3	0
153	1363	70.4	0
153	1363	70.5	0
153	1363	70.6	0
153	1363	70.7	0
153	1363	70.8	0
153	1363	70.9	0
153	1363	71	0
153	1363	71.1	0
153	1363	71.2	0
153	1363	71.3	0
153	1363	71.4	0
153	1363	71.5	0
153	1363	71.6	0
153	1363	71.7	0
153	1363	71.8	0
153	1363	71.9	0
153	1363	72	0
153	1363	72.1	0
153	1363	72.2	0
153	1363	72.3	0
153	1363	72.4	0
153	1363	72.5	0
153	1363	72.6	0
153	1363	72.7	0
153	1363	72.8	0
153	1363	72.9	0
153	1363	73	0
153	1363	73.1	0
153	1363	73.2	0
153	1363	73.3	0
153	1363	73.4	0
153	1363	73.5	0
153	1363	73.6	0
153	1363	73.7	0
153	1363	73.8	0
153	1363	73.9	0
153	1363	74	0
153	1363	74.1	0
153	1363	74.2	0
153	1363	74.3	0
153	1363	74.4	0
153	1363	74.5	0
153	1363	74.6	0
153	1363	74.7	0
153	1363	74.8	0
153	1363	74.9	0
153	1363	75	0
153	1363	75.1	0
153	1363	75.2	0
153	1363	75.3	0
153	1363	75.4	0
153	1363	75.5	0
153	1363	75.6	0
153	1363	75.7	0
153	1363	75.8	0
153	1363	75.9	0
153	1363	76	0
153	1363	76.1	0
153	1363	76.2	0
153	1363	76.3	0
153	1363	76.4	0
153	1363	76.5	0
153	1363	76.6	0
153	1363	76.7	0
153	1363	76.8	0
153	1363	76.9	0
153	1363	77	0
153	1363	77.1	0
153	1363	77.2	0
153	1363	77.3	0
153	1363	77.4	0
153	1363	77.5	0
153	1363	77.6	0
153	1363	77.7	0
153	1363	77.8	0
153	1363	77.9	0
153	1363	78	0
153	1363	78.1	0
153	1363	78.2	0
153	1363	78.3	0
153	1363	78.4	0
153	1363	78.5	0
153	1363	78.6	0
153	1363	78.7	0
153	1363	78.8	0
153	1363	78.9	0
153	1363	79	0
153	1363	79.1	0
153	1363	79.2	0
153	1363	79.3	0
153	1363	79.4	0
153	1363	79.5	0
153	1363	79.6	0
153	1363	79.7	0
153	1363	79.8	0
153	1363	79.9	0
153	1363	80	0
153	1363	80.1	0
153	1363	80.2	0
153	1363	80.3	0
153	1363	80.4	0
153	1363	80.5	0
153	1363	80.6	0
153	1363	80.7	0
153	1363	80.8	0
153	1363	80.9	0
153	1363	81	0
153	1363	81.1	0
153	1363	81.2	0
153	1363	81.3	0
153	1363	81.4	0
153	1363	81.5	0
153	1363	81.6	0
153	1363	81.7	0
153	1363	81.8	0
153	1363	81.9	0
153	1363	82	0
153	1363	82.1	0
153	1363	82.2	0
153	1363	82.3	0
153	1363	82.4	0
153	1363	82.5	0
153	1363	82.6	0
153	1363	82.7	0
153	1363	82.8	0
153	1363	82.9	0
153	1363	83	0
153	1363	83.1	0
153	1363	83.2	0
153	1363	83.3	0
153	1363	83.4	0
153	1363	83.5	0
153	1363	83.6	0
153	1363	83.7	0
153	1363	83.8	0
153	1363	83.9	0
153	1363	84	0
153	1363	84.1	0
153	1363	84.2	0
153	1363	84.3	0
153	1363	84.4	0
153	1363	84.5	0
153	1363	84.6	0
153	1363	84.7	0
153	1363	84.8	0
153	1363	84.9	0
153	1363	85	0
153	1363	85.1	0
153	1363	85.2	0
153	1363	85.3	0
153	1363	85.4	0
153	1363	85.5	0
153	1363	85.6	0
153	1363	85.7	0
153	1363	85.8	0
153	1363	85.9	0
153	1363	86	0
153	1363	86.1	0
153	1363	86.2	0
153	1363	86.3	0
153	1363	86.4	0
153	1363	86.5	0
153	1363	86.6	0
153	1363	86.7	0
153	1363	86.8	0
153	1363	86.9	0
153	1363	87	0
153	1363	87.1	0
153	1363	87.2	0
153	1363	87.3	0
153	1363	87.4	0
153	1363	87.5	0
153	1363	87.6	0
153	1363	87.7	0
153	1363	87.8	0
153	1363	87.9	0
153	1363	88	0
153	1363	88.1	0
153	1363	88.2	0
153	1363	88.3	0
153	1363	88.4	0
153	1363	88.5	0
153	1363	88.6	0
153	1363	88.7	0
153	1363	88.8	0
153	1363	88.9	0
153	1363	89	0
153	1363	89.1	0
153	1363	89.2	0
153	1363	89.3	0
153	1363	89.4	0
153	1363	89.5	0
153	1363	89.6	0
153	1363	89.7	0
153	1363	89.8	0
153	1363	89.9	0
153	1363	90	0
153	1363	90.1	0
153	1363	90.2	0
153	1363	90.3	0
153	1363	90.4	0
153	1363	90.5	0
153	1363	90.6	0
153	1363	90.7	0
153	1363	90.8	0
153	1363	90.9	0
153	1363	91	0
153	1363	91.1	0
153	1363	91.2	0
153	1363	91.3	0
153	1363	91.4	0
153	1363	91.5	0
153	1363	91.6	0
153	1363	91.7	0
153	1363	91.8	0
153	1363	91.9	0
153	1363	92	0
153	1363	92.1	0
153	1363	92.2	0
153	1363	92.3	0
153	1363	92.4	0
153	1363	92.5	0
153	1363	92.6	0
153	1363	92.7	0
153	1363	92.8	0
153	1363	92.9	0
153	1363	93	0
153	1363	93.1	0
153	1363	93.2	0
153	1363	93.3	0
153	1363	93.4	0
153	1363	93.5	0
153	1363	93.6	0
153	1363	93.7	0
153	1363	93.8	0
153	1363	93.9	0
153	1363	94	0
153	1363	94.1	0
153	1363	94.2	0
153	1363	94.3	0
153	1363	94.4	0
153	1363	94.5	0
153	1363	94.6	0
153	1363	94.7	0
153	1363	94.8	0
153	1363	94.9	0
153	1363	95	0
153	1363	95.1	0
153	1363	95.2	0
153	1363	95.3	0
153	1363	95.4	0
153	1363	95.5	0
153	1363	95.6	0
153	1363	95.7	0
153	1363	95.8	0
153	1363	95.9	0
153	1363	96	0
153	1363	96.1	0
153	1363	96.2	0
153	1363	96.3	0
153	1363	96.4	0
153	1363	96.5	0
153	1363	96.6	0
153	1363	96.7	0
153	1363	96.8	0
153	1363	96.9	0
153	1363	97	0
153	1363	97.1	0
153	1363	97.2	0
153	1363	97.3	0
153	1363	97.4	0
153	1363	97.5	0
153	1363	97.6	0
153	1363	97.7	0
153	1363	97.8	0
153	1363	97.9	0
153	1363	98	0
153	1363	98.1	0
153	1363	98.2	0
153	1363	98.3	0
153	1363	98.4	0
153	1363	98.5	0
153	1363	98.6	0
153	1363	98.7	0
153	1363	98.8	0
153	1363	98.9	0
153	1363	99	0
153	1363	99.1	0
153	1363	99.2	0
153	1363	99.3	0
153	1363	99.4	0
153	1363	99.5	0
153	1363	99.6	0
153	1363	99.7	0
153	1363	99.8	0
153	1363	99.9	0
153	1363	100	0
153	1363	100.1	0
153	1363	100.2	0
153	1363	100.3	0
153	1363	100.4	0
153	1363	100.5	0
153	1363	100.6	0
153	1363	100.7	0
153	1363	100.8	0
153	1363	100.9	0
153	1363	101	0
153	1363	101.1	0
153	1363	101.2	0
153	1363	101.3	0
153	1363	101.4	0
153	1363	101.5	0
153	1363	101.6	0
153	1363	101.7	0
153	1363	101.8	0
153	1363	101.9	0
153	1363	102	0
153	1363	102.1	0
153	1363	102.2	0
153	1363	102.3	0
153	1363	102.4	0
153	1363	102.5	0
153	1363	102.6	0
153	1363	102.7	0
153	1363	102.8	0
153	1363	102.9	0
153	1363	103	0
153	1363	103.1	0
153	1363	103.2	0
153	1363	103.3	0
153	1363	103.4	0
153	1363	103.5	0
153	1363	103.6	0
153	1363	103.7	0
153	1363	103.8	0
153	1363	103.9	0
153	1363	104	0
153	1363	104.1	0
153	1363	104.2	0
153	1363	104.3	0
153	1363	104.4	0
153	1363	104.5	0
153	1363	104.6	0
153	1363	104.7	0
153	1363	104.8	0
153	1363	104.9	0
153	1363	105	0
153	1363	105.1	0
153	1363	105.2	0
153	1363	105.3	0
153	1363	105.4	0
153	1363	105.5	0
153	1363	105.6	0
153	1363	105.7	0
153	1363	105.8	0
153	1363	105.9	0
153	1363	106	0
153	1363	106.1	0
153	1363	106.2	0
153	1363	106.3	0
153	1363	106.4	0
153	1363	106.5	0
153	1363	106.6	0
153	1363	106.7	0
153	1363	106.8	0
153	1363	106.9	0
153	1363	107	0
153	1363	107.1	0
153	1363	107.2	0
153	1363	107.3	0
153	1363	107.4	0
153	1363	107.5	0
153	1363	107.6	0
153	1363	107.7	0
153	1363	107.8	0
153	1363	107.9	0
153	1363	108	0
153	1363	108.1	0
153	1363	108.2	0
153	1363	108.3	0
153	1363	108.4	0
153	1363	108.5	0
153	1363	108.6	0
153	1363	108.7	0
153	1363	108.8	0
153	1363	108.9	0
153	1363	109	0
153	1363	109.1	0
153	1363	109.2	0
153	1363	109.3	0
153	1363	109.4	0
153	1363	109.5	0
153	1363	109.6	0
153	1363	109.7	0
153	1363	109.8	0
153	1363	109.9	0
153	1363	110	0
153	1363	110.1	0
153	1363	110.2	0
153	1363	110.3	0
153	1363	110.4	0
153	1363	110.5	0
153	1363	110.6	0
153	1363	110.7	0
153	1363	110.8	0
153	1363	110.9	0
153	1363	111	0
153	1363	111.1	0
153	1363	111.2	0
153	1363	111.3	0
153	1363	111.4	0
153	1363	111.5	0
153	1363	111.6	0
153	1363	111.7	0
153	1363	111.8	0
153	1363	111.9	0
153	1363	112	0
153	1363	112.1	0
153	1363	112.2	0
153	1363	112.3	0
153	1363	112.4	0
153	1363	112.5	0
153	1363	112.6	0
153	1363	112.7	0
153	1363	112.8	0
153	1363	112.9	0
153	1363	113	0
153	1363	113.1	0
153	1363	113.2	0
153	1363	113.3	0
153	1363	113.4	0
153	1363	113.5	0
153	1363	113.6	0
153	1363	113.7	0
153	1363	113.8	0
153	1363	113.9	0
153	1363	114	0
153	1363	114.1	0
153	1363	114.2	0
153	1363	114.3	0
153	1363	114.4	0
153	1363	114.5	0
153	1363	114.6	0
153	1363	114.7	0
153	1363	114.8	0
153	1363	114.9	0
153	1363	115	0
153	1363	115.1	0
153	1363	115.2	0
153	1363	115.3	0
153	1363	115.4	0
153	1363	115.5	0
153	1363	115.6	0
153	1363	115.7	0
153	1363	115.8	0
153	1363	115.9	0
153	1363	116	0
153	1363	116.1	0
153	1363	116.2	0
153	1363	116.3	0
153	1363	116.4	0
153	1363	116.5	0
153	1363	116.6	0
153	1363	116.7	0
153	1363	116.8	0
153	1363	116.9	0
153	1363	117	0
153	1363	117.1	0
153	1363	117.2	0
153	1363	117.3	0
153	1363	117.4	0
153	1363	117.5	0
153	1363	117.6	0
153	1363	117.7	0
153	1363	117.8	0
153	1363	117.9	0
153	1363	118	0
153	1363	118.1	0
vector 154 Scenario.node[3].app[0] throughput:vector ETV
attr source throughput(packetReceived)
attr title "throughput, vector"
attr unit bps
93	802	71.000152786529	158
93	870	71.000558314193	158
97	802	71.000152786529	130
152	870	71.000558314193	158
151	870	71.000558314193	158
96	802	71.000152786529	158
95	802	71.000152786529	158
94	802	71.000152786529	158
23	120	10.1	15
22	120	10.1	1
22	772	71.000000786529	3
22	801	71.000152786529	1
22	837	71.000406314193	3
22	869	71.000558314193	1
20	120	10.1	0
20	120	10.1	0
20	120	10.1	2
21	120	10.1	3
98	805	71.000152786529	108
99	805	71.000152786529	1
154	1413	0.1	0
154	1413	0.2	0
154	1413	0.3	0
154	1413	0.4	0
154	1413	0.5	0
154	1413	0.6	0
154	1413	0.7	0
154	1413	0.8	0
154	1413	0.9	0
154	1413	1	0
154	1413	1.1	0
154	1413	1.2	0
154	1413	1.3	0
154	1413	1.4	0
154	1413	1.5	0
154	1413	1.6	0
154	1413	1.7	0
154	1413	1.8	0
154	1413	1.9	0
154	1413	2	0
154	1413	2.1	0
154	1413	2.2	0
154	1413	2.3	0
154	1413	2.4	0
154	1413	2.5	0
154	1413	2.6	0
154	1413	2.7	0
154	1413	2.8	0
154	1413	2.9	0
154	1413	3	0
154	1413	3.1	0
154	1413	3.2	0
154	1413	3.3	0
154	1413	3.4	0
154	1413	3.5	0
154	1413	3.6	0
154	1413	3.7	0
154	1413	3.8	0
154	1413	3.9	0
154	1413	4	0
154	1413	4.1	0
154	1413	4.2	0
154	1413	4.3	0
154	1413	4.4	0
154	1413	4.5	0
154	1413	4.6	0
154	1413	4.7	0
154	1413	4.8	0
154	1413	4.9	0
154	1413	5	0
154	1413	5.1	0
154	1413	5.2	0
154	1413	5.3	0
154	1413	5.4	0
154	1413	5.5	0
154	1413	5.6	0
154	1413	5.7	0
154	1413	5.8	0
154	1413	5.9	0
154	1413	6	0
154	1413	6.1	0
154	1413	6.2	0
154	1413	6.3	0
154	1413	6.4	0
154	1413	6.5	0
154	1413	6.6	0
154	1413	6.7	0
154	1413	6.8	0
154	1413	6.9	0
154	1413	7	0
154	1413	7.1	0
154	1413	7.2	0
154	1413	7.3	0
154	1413	7.4	0
154	1413	7.5	0
154	1413	7.6	0
154	1413	7.7	0
154	1413	7.8	0
154	1413	7.9	0
154	1413	8	0
154	1413	8.1	0
154	1413	8.2	0
154	1413	8.3	0
154	1413	8.4	0
154	1413	8.5	0
154	1413	8.6	0
154	1413	8.7	0
154	1413	8.8	0
154	1413	8.9	0
154	1413	9	0
154	1413	9.1	0
154	1413	9.2	0
154	1413	9.3	0
154	1413	9.4	0
154	1413	9.5	0
154	1413	9.6	0
154	1413	9.7	0
154	1413	9.8	0
154	1413	9.9	0
154	1413	10	0
154	1413	10.1	0
154	1413	10.2	0
154	1413	10.3	0
154	1413	10.4	0
154	1413	10.5	0
154	1413	10.6	0
154	1413	10.7	0
154	1413	10.8	0
154	1413	10.9	0
154	1413	11	0
154	1413	11.1	0
154	1413	11.2	0
154	1413	11.3	0
154	1413	11.4	0
154	1413	11.5	0
154	1413	11.6	0
154	1413	11.7	0
154	1413	11.8	0
154	1413	11.9	0
154	1413	12	0
154	1413	12.1	0
154	1413	12.2	0
154	1413	12.3	0
154	1413	12.4	0
154	1413	12.5	0
154	1413	12.6	0
154	1413	12.7	0
154	1413	12.8	0
154	1413	12.9	0
154	1413	13	0
154	1413	13.1	0
154	1413	13.2	0
154	1413	13.3	0
154	1413	13.4	0
154	1413	13.5	0
154	1413	13.6	0
154	1413	13.7	0
154	1413	13.8	0
154	1413	13.9	0
154	1413	14	0
154	1413	14.1	0
154	1413	14.2	0
154	1413	14.3	0
154	1413	14.4	0
154	1413	14.5	0
154	1413	14.6	0
154	1413	14.7	0
154	1413	14.8	0
154	1413	14.9	0
154	1413	15	0
154	1413	15.1	0
154	1413	15.2	0
154	1413	15.3	0
154	1413	15.4	0
154	1413	15.5	0
154	1413	15.6	0
154	1413	15.7	0
154	1413	15.8	0
154	1413	15.9	0
154	1413	16	0
154	1413	16.1	0
154	1413	16.2	0
154	1413	16.3	0
154	1413	16.4	0
154	1413	16.5	0
154	1413	16.6	0
154	1413	16.7	0
154	1413	16.8	0
154	1413	16.9	0
154	1413	17	0
154	1413	17.1	0
154	1413	17.2	0
154	1413	17.3	0
154	1413	17.4	0
154	1413	17.5	0
154	1413	17.6	0
154	1413	17.7	0
154	1413	17.8	0
154	1413	17.9	0
154	1413	18	0
154	1413	18.1	0
154	1413	18.2	0
154	1413	18.3	0
154	1413	18.4	0
154	1413	18.5	0
154	1413	18.6	0
154	1413	18.7	0
154	1413	18.8	0
154	1413	18.9	0
154	1413	19	0
154	1413	19.1	0
154	1413	19.2	0
154	1413	19.3	0
154	1413	19.4	0
154	1413	19.5	0
154	1413	19.6	0
154	1413	19.7	0
154	1413	19.8	0
154	1413	19.9	0
154	1413	20	0
154	1413	20.1	0
154	1413	20.2	0
154	1413	20.3	0
154	1413	20.4	0
154	1413	20.5	0
154	1413	20.6	0
154	1413	20.7	0
154	1413	20.8	0
154	1413	20.9	0
154	1413	21	0
154	1413	21.1	0
154	1413	21.2	0
154	1413	21.3	0
154	1413	21.4	0
154	1413	21.5	0
154	1413	21.6	0
154	1413	21.7	0
154	1413	21.8	0
154	1413	21.9	0
154	1413	22	0
154	1413	22.1	0
154	1413	22.2	0
154	1413	22.3	0
154	1413	22.4	0
154	1413	22.5	0
154	1413	22.6	0
154	1413	22.7	0
154	1413	22.8	0
154	1413	22.9	0
154	1413	23	0
154	1413	23.1	0
154	1413	23.2	0
154	1413	23.3	0
154	1413	23.4	0
154	1413	23.5	0
154	1413	23.6	0
154	1413	23.7	0
154	1413	23.8	0
154	1413	23.9	0
154	1413	24	0
154	1413	24.1	0
154	1413	24.2	0
154	1413	24.3	0
154	1413	24.4	0
154	1413	24.5	0
154	1413	24.6	0
154	1413	24.7	0
154	1413	24.8	0
154	1413	24.9	0
154	1413	25	0
154	1413	25.1	0
154	1413	25.2	0
154	1413	25.3	0
154	1413	25.4	0
154	1413	25.5	0
154	1413	25.6	0
154	1413	25.7	0
154	1413	25.8	0
154	1413	25.9	0
154	1413	26	0
154	1413	26.1	0
154	1413	26.2	0
154	1413	26.3	0
154	1413	26.4	0
154	1413	26.5	0
154	1413	26.6	0
154	1413	26.7	0
154	1413	26.8	0
154	1413	26.9	0
154	1413	27	0
154	1413	27.1	0
154	1413	27.2	0
154	1413	27.3	0
154	1413	27.4	0
154	1413	27.5	0
154	1413	27.6	0
154	1413	27.7	0
154	1413	27.8	0
154	1413	27.9	0
154	1413	28	0
154	1413	28.1	0
154	1413	28.2	0
154	1413	28.3	0
154	1413	28.4	0
154	1413	28.5	0
154	1413	28.6	0
154	1413	28.7	0
154	1413	28.8	0
154	1413	28.9	0
154	1413	29	0
154	1413	29.1	0
154	1413	29.2	0
154	1413	29.3	0
154	1413	29.4	0
154	1413	29.5	0
154	1413	29.6	0
154	1413	29.7	0
154	1413	29.8	0
154	1413	29.9	0
154	1413	30	0
154	1413	30.1	0
154	1413	30.2	0
154	1413	30.3	0
154	1413	30.4	0
154	1413	30.5	0
154	1413	30.6	0
154	1413	30.7	0
154	1413	30.8	0
154	1413	30.9	0
154	1413	31	0
154	1413	31.1	0
154	1413	31.2	0
154	1413	31.3	0
154	1413	31.4	0
154	1413	31.5	0
154	1413	31.6	0
154	1413	31.7	0
154	1413	31.8	0
154	1413	31.9	0
154	1413	32	0
154	1413	32.1	0
154	1413	32.2	0
154	1413	32.3	0
154	1413	32.4	0
154	1413	32.5	0
154	1413	32.6	0
154	1413	32.7	0
154	1413	32.8	0
154	1413	32.9	0
154	1413	33	0
154	1413	33.1	0
154	1413	33.2	0
154	1413	33.3	0
154	1413	33.4	0
154	1413	33.5	0
154	1413	33.6	0
154	1413	33.7	0
154	1413	33.8	0
154	1413	33.9	0
154	1413	34	0
154	1413	34.1	0
154	1413	34.2	0
154	1413	34.3	0
154	1413	34.4	0
154	1413	34.5	0
154	1413	34.6	0
154	1413	34.7	0
154	1413	34.8	0
154	1413	34.9	0
154	1413	35	0
154	1413	35.1	0
154	1413	35.2	0
154	1413	35.3	0
154	1413	35.4	0
154	1413	35.5	0
154	1413	35.6	0
154	1413	35.7	0
154	1413	35.8	0
154	1413	35.9	0
154	1413	36	0
154	1413	36.1	0
154	1413	36.2	0
154	1413	36.3	0
154	1413	36.4	0
154	1413	36.5	0
154	1413	36.6	0
154	1413	36.7	0
154	1413	36.8	0
154	1413	36.9	0
154	1413	37	0
154	1413	37.1	0
154	1413	37.2	0
154	1413	37.3	0
154	1413	37.4	0
154	1413	37.5	0
154	1413	37.6	0
154	1413	37.7	0
154	1413	37.8	0
154	1413	37.9	0
154	1413	38	0
154	1413	38.1	0
154	1413	38.2	0
154	1413	38.3	0
154	1413	38.4	0
154	1413	38.5	0
154	1413	38.6	0
154	1413	38.7	0
154	1413	38.8	0
154	1413	38.9	0
154	1413	39	0
154	1413	39.1	0
154	1413	39.2	0
154	1413	39.3	0
154	1413	39.4	0
154	1413	39.5	0
154	1413	39.6	0
154	1413	39.7	0
154	1413	39.8	0
154	1413	39.9	0
154	1413	40	0
154	1413	40.1	0
154	1413	40.2	0
154	1413	40.3	0
154	1413	40.4	0
154	1413	40.5	0
154	1413	40.6	0
154	1413	40.7	0
154	1413	40.8	0
154	1413	40.9	0
154	1413	41	0
154	1413	41.1	0
154	1413	41.2	0
154	1413	41.3	0
154	1413	41.4	0
154	1413	41.5	0
154	1413	41.6	0
154	1413	41.7	0
154	1413	41.8	0
154	1413	41.9	0
154	1413	42	0
154	1413	42.1	0
154	1413	42.2	0
154	1413	42.3	0
154	1413	42.4	0
154	1413	42.5	0
154	1413	42.6	0
154	1413	42.7	0
154	1413	42.8	0
154	1413	42.9	0
154	1413	43	0
154	1413	43.1	0
154	1413	43.2	0
154	1413	43.3	0
154	1413	43.4	0
154	1413	43.5	0
154	1413	43.6	0
154	1413	43.7	0
154	1413	43.8	0
154	1413	43.9	0
154	1413	44	0
154	1413	44.1	0
154	1413	44.2	0
154	1413	44.3	0
154	1413	44.4	0
154	1413	44.5	0
154	1413	44.6	0
154	1413	44.7	0
154	1413	44.8	0
154	1413	44.9	0
154	1413	45	0
154	1413	45.1	0
154	1413	45.2	0
154	1413	45.3	0
154	1413	45.4	0
154	1413	45.5	0
154	1413	45.6	0
154	1413	45.7	0
154	1413	45.8	0
154	1413	45.9	0
154	1413	46	0
154	1413	46.1	0
154	1413	46.2	0
154	1413	46.3	0
154	1413	46.4	0
154	1413	46.5	0
154	1413	46.6	0
154	1413	46.7	0
154	1413	46.8	0
154	1413	46.9	0
154	1413	47	0
154	1413	47.1	0
154	1413	47.2	0
154	1413	47.3	0
154	1413	47.4	0
154	1413	47.5	0
154	1413	47.6	0
154	1413	47.7	0
154	1413	47.8	0
154	1413	47.9	0
154	1413	48	0
154	1413	48.1	0
154	1413	48.2	0
154	1413	48.3	0
154	1413	48.4	0
154	1413	48.5	0
154	1413	48.6	0
154	1413	48.7	0
154	1413	48.8	0
154	1413	48.9	0
154	1413	49	0
154	1413	49.1	0
154	1413	49.2	0
154	1413	49.3	0
154	1413	49.4	0
154	1413	49.5	0
154	1413	49.6	0
154	1413	49.7	0
154	1413	49.8	0
154	1413	49.9	0
154	1413	50	0
154	1413	50.1	0
154	1413	50.2	0
154	1413	50.3	0
154	1413	50.4	0
154	1413	50.5	0
154	1413	50.6	0
154	1413	50.7	0
154	1413	50.8	0
154	1413	50.9	0
154	1413	51	0
154	1413	51.1	0
154	1413	51.2	0
154	1413	51.3	0
154	1413	51.4	0
154	1413	51.5	0
154	1413	51.6	0
154	1413	51.7	0
154	1413	51.8	0
154	1413	51.9	0
154	1413	52	0
154	1413	52.1	0
154	1413	52.2	0
154	1413	52.3	0
154	1413	52.4	0
154	1413	52.5	0
154	1413	52.6	0
154	1413	52.7	0
154	1413	52.8	0
154	1413	52.9	0
154	1413	53	0
154	1413	53.1	0
154	1413	53.2	0
154	1413	53.3	0
154	1413	53.4	0
154	1413	53.5	0
154	1413	53.6	0
154	1413	53.7	0
154	1413	53.8	0
154	1413	53.9	0
154	1413	54	0
154	1413	54.1	0
154	1413	54.2	0
154	1413	54.3	0
154	1413	54.4	0
154	1413	54.5	0
154	1413	54.6	0
154	1413	54.7	0
154	1413	54.8	0
154	1413	54.9	0
154	1413	55	0
154	1413	55.1	0
154	1413	55.2	0
154	1413	55.3	0
154	1413	55.4	0
154	1413	55.5	0
154	1413	55.6	0
154	1413	55.7	0
154	1413	55.8	0
154	1413	55.9	0
154	1413	56	0
154	1413	56.1	0
154	1413	56.2	0
154	1413	56.3	0
154	1413	56.4	0
154	1413	56.5	0
154	1413	56.6	0
154	1413	56.7	0
154	1413	56.8	0
154	1413	56.9	0
154	1413	57	0
154	1413	57.1	0
154	1413	57.2	0
154	1413	57.3	0
154	1413	57.4	0
154	1413	57.5	0
154	1413	57.6	0
154	1413	57.7	0
154	1413	57.8	0
154	1413	57.9	0
154	1413	58	0
154	1413	58.1	0
154	1413	58.2	0
154	1413	58.3	0
154	1413	58.4	0
154	1413	58.5	0
154	1413	58.6	0
154	1413	58.7	0
154	1413	58.8	0
154	1413	58.9	0
154	1413	59	0
154	1413	59.1	0
154	1413	59.2	0
154	1413	59.3	0
154	1413	59.4	0
154	1413	59.5	0
154	1413	59.6	0
154	1413	59.7	0
154	1413	59.8	0
154	1413	59.9	0
154	1413	60	0
154	1413	60.1	0
154	1413	60.2	0
154	1413	60.3	0
154	1413	60.4	0
154	1413	60.5	0
154	1413	60.6	0
154	1413	60.7	0
154	1413	60.8	0
154	1413	60.9	0
154	1413	61	0
154	1413	61.1	0
154	1413	61.2	0
154	1413	61.3	0
154	1413	61.4	0
154	1413	61.5	0
154	1413	61.6	0
154	1413	61.7	0
154	1413	61.8	0
154	1413	61.9	0
154	1413	62	0
154	1413	62.1	0
154	1413	62.2	0
154	1413	62.3	0
154	1413	62.4	0
154	1413	62.5	0
154	1413	62.6	0
154	1413	62.7	0
154	1413	62.8	0
154	1413	62.9	0
154	1413	63	0
154	1413	63.1	0
154	1413	63.2	0
154	1413	63.3	0
154	1413	63.4	0
154	1413	63.5	0
154	1413	63.6	0
154	1413	63.7	0
154	1413	63.8	0
154	1413	63.9	0
154	1413	64	0
154	1413	64.1	0
154	1413	64.2	0
154	1413	64.3	0
154	1413	64.4	0
154	1413	64.5	0
154	1413	64.6	0
154	1413	64.7	0
154	1413	64.8	0
154	1413	64.9	0
154	1413	65	0
154	1413	65.1	0
154	1413	65.2	0
154	1413	65.3	0
154	1413	65.4	0
154	1413	65.5	0
154	1413	65.6	0
154	1413	65.7	0
154	1413	65.8	0
154	1413	65.9	0
154	1413	66	0
154	1413	66.1	0
154	1413	66.2	0
154	1413	66.3	0
154	1413	66.4	0
154	1413	66.5	0
154	1413	66.6	0
154	1413	66.7	0
154	1413	66.8	0
154	1413	66.9	0
154	1413	67	0
154	1413	67.1	0
154	1413	67.2	0
154	1413	67.3	0
154	1413	67.4	0
154	1413	67.5	0
154	1413	67.6	0
154	1413	67.7	0
154	1413	67.8	0
154	1413	67.9	0
154	1413	68	0
154	1413	68.1	0
154	1413	68.2	0
154	1413	68.3	0
154	1413	68.4	0
154	1413	68.5	0
154	1413	68.6	0
154	1413	68.7	0
154	1413	68.8	0
154	1413	68.9	0
154	1413	69	0
154	1413	69.1	0
154	1413	69.2	0
154	1413	69.3	0
154	1413	69.4	0
154	1413	69.5	0
154	1413	69.6	0
154	1413	69.7	0
154	1413	69.8	0
154	1413	69.9	0
154	1413	70	0
154	1413	70.1	0
154	1413	70.2	0
154	1413	70.3	0
154	1413	70.4	0
154	1413	70.5	0
154	1413	70.6	0
154	1413	70.7	0
154	1413	70.8	0
154	1413	70.9	0
154	1413	71	0
154	1413	71.1	0
154	1413	71.2	0
154	1413	71.3	0
154	1413	71.4	0
154	1413	71.5	0
154	1413	71.6	0
154	1413	71.7	0
154	1413	71.8	0
154	1413	71.9	0
154	1413	72	0
154	1413	72.1	0
154	1413	72.2	0
154	1413	72.3	0
154	1413	72.4	0
154	1413	72.5	0
154	1413	72.6	0
154	1413	72.7	0
154	1413	72.8	0
154	1413	72.9	0
154	1413	73	0
154	1413	73.1	0
154	1413	73.2	0
154	1413	73.3	0
154	1413	73.4	0
154	1413	73.5	0
154	1413	73.6	0
154	1413	73.7	0
154	1413	73.8	0
154	1413	73.9	0
154	1413	74	0
154	1413	74.1	0
154	1413	74.2	0
154	1413	74.3	0
154	1413	74.4	0
154	1413	74.5	0
154	1413	74.6	0
154	1413	74.7	0
154	1413	74.8	0
154	1413	74.9	0
154	1413	75	0
154	1413	75.1	0
154	1413	75.2	0
154	1413	75.3	0
154	1413	75.4	0
154	1413	75.5	0
154	1413	75.6	0
154	1413	75.7	0
154	1413	75.8	0
154	1413	75.9	0
154	1413	76	0
154	1413	76.1	0
154	1413	76.2	0
154	1413	76.3	0
154	1413	76.4	0
154	1413	76.5	0
154	1413	76.6	0
154	1413	76.7	0
154	1413	76.8	0
154	1413	76.9	0
154	1413	77	0
154	1413	77.1	0
154	1413	77.2	0
154	1413	77.3	0
154	1413	77.4	0
154	1413	77.5	0
154	1413	77.6	0
154	1413	77.7	0
154	1413	77.8	0
154	1413	77.9	0
154	1413	78	0
154	1413	78.1	0
154	1413	78.2	0
154	1413	78.3	0
154	1413	78.4	0
154	1413	78.5	0
154	1413	78.6	0
154	1413	78.7	0
154	1413	78.8	0
154	1413	78.9	0
154	1413	79	0
154	1413	79.1	0
154	1413	79.2	0
154	1413	79.3	0
154	1413	79.4	0
154	1413	79.5	0
154	1413	79.6	0
154	1413	79.7	0
154	1413	79.8	0
154	1413	79.9	0
154	1413	80	0
154	1413	80.1	0
154	1413	80.2	0
154	1413	80.3	0
154	1413	80.4	0
154	1413	80.5	0
154	1413	80.6	0
154	1413	80.7	0
154	1413	80.8	0
154	1413	80.9	0
154	1413	81	0
154	1413	81.1	0
154	1413	81.2	0
154	1413	81.3	0
154	1413	81.4	0
154	1413	81.5	0
154	1413	81.6	0
154	1413	81.7	0
154	1413	81.8	0
154	1413	81.9	0
154	1413	82	0
154	1413	82.1	0
154	1413	82.2	0
154	1413	82.3	0
154	1413	82.4	0
154	1413	82.5	0
154	1413	82.6	0
154	1413	82.7	0
154	1413	82.8	0
154	1413	82.9	0
154	1413	83	0
154	1413	83.1	0
154	1413	83.2	0
154	1413	83.3	0
154	1413	83.4	0
154	1413	83.5	0
154	1413	83.6	0
154	1413	83.7	0
154	1413	83.8	0
154	1413	83.9	0
154	1413	84	0
154	1413	84.1	0
154	1413	84.2	0
154	1413	84.3	0
154	1413	84.4	0
154	1413	84.5	0
154	1413	84.6	0
154	1413	84.7	0
154	1413	84.8	0
154	1413	84.9	0
154	1413	85	0
154	1413	85.1	0
154	1413	85.2	0
154	1413	85.3	0
154	1413	85.4	0
154	1413	85.5	0
154	1413	85.6	0
154	1413	85.7	0
154	1413	85.8	0
154	1413	85.9	0
154	1413	86	0
154	1413	86.1	0
154	1413	86.2	0
154	1413	86.3	0
154	1413	86.4	0
154	1413	86.5	0
154	1413	86.6	0
154	1413	86.7	0
154	1413	86.8	0
154	1413	86.9	0
154	1413	87	0
154	1413	87.1	0
154	1413	87.2	0
154	1413	87.3	0
154	1413	87.4	0
154	1413	87.5	0
154	1413	87.6	0
154	1413	87.7	0
154	1413	87.8	0
154	1413	87.9	0
154	1413	88	0
154	1413	88.1	0
154	1413	88.2	0
154	1413	88.3	0
154	1413	88.4	0
154	1413	88.5	0
154	1413	88.6	0
154	1413	88.7	0
154	1413	88.8	0
154	1413	88.9	0
154	1413	89	0
154	1413	89.1	0
154	1413	89.2	0
154	1413	89.3	0
154	1413	89.4	0
154	1413	89.5	0
154	1413	89.6	0
154	1413	89.7	0
154	1413	89.8	0
154	1413	89.9	0
154	1413	90	0
154	1413	90.1	0
154	1413	90.2	0
154	1413	90.3	0
154	1413	90.4	0
154	1413	90.5	0
154	1413	90.6	0
154	1413	90.7	0
154	1413	90.8	0
154	1413	90.9	0
154	1413	91	0
154	1413	91.1	0
154	1413	91.2	0
154	1413	91.3	0
154	1413	91.4	0
154	1413	91.5	0
154	1413	91.6	0
154	1413	91.7	0
154	1413	91.8	0
154	1413	91.9	0
154	1413	92	0
154	1413	92.1	0
154	1413	92.2	0
154	1413	92.3	0
154	1413	92.4	0
154	1413	92.5	0
154	1413	92.6	0
154	1413	92.7	0
154	1413	92.8	0
154	1413	92.9	0
154	1413	93	0
154	1413	93.1	0
154	1413	93.2	0
154	1413	93.3	0
154	1413	93.4	0
154	1413	93.5	0
154	1413	93.6	0
154	1413	93.7	0
154	1413	93.8	0
154	1413	93.9	0
154	1413	94	0
154	1413	94.1	0
154	1413	94.2	0
154	1413	94.3	0
154	1413	94.4	0
154	1413	94.5	0
154	1413	94.6	0
154	1413	94.7	0
154	1413	94.8	0
154	1413	94.9	0
154	1413	95	0
154	1413	95.1	0
154	1413	95.2	0
154	1413	95.3	0
154	1413	95.4	0
154	1413	95.5	0
154	1413	95.6	0
154	1413	95.7	0
154	1413	95.8	0
154	1413	95.9	0
154	1413	96	0
154	1413	96.1	0
154	1413	96.2	0
154	1413	96.3	0
154	1413	96.4	0
154	1413	96.5	0
154	1413	96.6	0
154	1413	96.7	0
154	1413	96.8	0
154	1413	96.9	0
154	1413	97	0
154	1413	97.1	0
154	1413	97.2	0
154	1413	97.3	0
154	1413	97.4	0
154	1413	97.5	0
154	1413	97.6	0
154	1413	97.7	0
154	1413	97.8	0
154	1413	97.9	0
154	1413	98	0
154	1413	98.1	0
154	1413	98.2	0
154	1413	98.3	0
154	1413	98.4	0
154	1413	98.5	0
154	1413	98.6	0
154	1413	98.7	0
154	1413	98.8	0
154	1413	98.9	0
154	1413	99	0
154	1413	99.1	0
154	1413	99.2	0
154	1413	99.3	0
154	1413	99.4	0
154	1413	99.5	0
154	1413	99.6	0
154	1413	99.7	0
154	1413	99.8	0
154	1413	99.9	0
154	1413	100	0
154	1413	100.1	0
154	1413	100.2	0
154	1413	100.3	0
154	1413	100.4	0
154	1413	100.5	0
154	1413	100.6	0
154	1413	100.7	0
154	1413	100.8	0
154	1413	100.9	0
154	1413	101	0
154	1413	101.1	0
154	1413	101.2	0
154	1413	101.3	0
154	1413	101.4	0
154	1413	101.5	0
154	1413	101.6	0
154	1413	101.7	0
154	1413	101.8	0
154	1413	101.9	0
154	1413	102	0
154	1413	102.1	0
154	1413	102.2	0
154	1413	102.3	0
154	1413	102.4	0
154	1413	102.5	0
154	1413	102.6	0
154	1413	102.7	0
154	1413	102.8	0
154	1413	102.9	0
154	1413	103	0
154	1413	103.1	0
154	1413	103.2	0
154	1413	103.3	0
154	1413	103.4	0
154	1413	103.5	0
154	1413	103.6	0
154	1413	103.7	0
154	1413	103.8	0
154	1413	103.9	0
154	1413	104	0
154	1413	104.1	0
154	1413	104.2	0
154	1413	104.3	0
154	1413	104.4	0
154	1413	104.5	0
154	1413	104.6	0
154	1413	104.7	0
154	1413	104.8	0
154	1413	104.9	0
154	1413	105	0
154	1413	105.1	0
154	1413	105.2	0
154	1413	105.3	0
154	1413	105.4	0
154	1413	105.5	0
154	1413	105.6	0
154	1413	105.7	0
154	1413	105.8	0
154	1413	105.9	0
154	1413	106	0
154	1413	106.1	0
154	1413	106.2	0
154	1413	106.3	0
154	1413	106.4	0
154	1413	106.5	0
154	1413	106.6	0
154	1413	106.7	0
154	1413	106.8	0
154	1413	106.9	0
154	1413	107	0
154	1413	107.1	0
154	1413	107.2	0
154	1413	107.3	0
154	1413	107.4	0
154	1413	107.5	0
154	1413	107.6	0
154	1413	107.7	0
154	1413	107.8	0
154	1413	107.9	0
154	1413	108	0
154	1413	108.1	0
154	1413	108.2	0
154	1413	108.3	0
154	1413	108.4	0
154	1413	108.5	0
154	1413	108.6	0
154	1413	108.7	0
154	1413	108.8	0
154	1413	108.9	0
154	1413	109	0
154	1413	109.1	0
154	1413	109.2	0
154	1413	109.3	0
154	1413	109.4	0
154	1413	109.5	0
154	1413	109.6	0
154	1413	109.7	0
154	1413	109.8	0
154	1413	109.9	0
154	1413	110	0
154	1413	110.1	0
154	1413	110.2	0
154	1413	110.3	0
154	1413	110.4	0
154	1413	110.5	0
154	1413	110.6	0
154	1413	110.7	0
154	1413	110.8	0
154	1413	110.9	0
154	1413	111	0
154	1413	111.1	0
154	1413	111.2	0
154	1413	111.3	0
154	1413	111.4	0
154	1413	111.5	0
154	1413	111.6	0
154	1413	111.7	0
154	1413	111.8	0
154	1413	111.9	0
154	1413	112	0
154	1413	112.1	0
154	1413	112.2	0
154	1413	112.3	0
154	1413	112.4	0
154	1413	112.5	0
154	1413	112.6	0
154	1413	112.7	0
154	1413	112.8	0
154	1413	112.9	0
154	1413	113	0
154	1413	113.1	0
154	1413	113.2	0
154	1413	113.3	0
154	1413	113.4	0
154	1413	113.5	0
154	1413	113.6	0
154	1413	113.7	0
154	1413	113.8	0
154	1413	113.9	0
154	1413	114	0
154	1413	114.1	0
154	1413	114.2	0
154	1413	114.3	0
154	1413	114.4	0
154	1413	114.5	0
154	1413	114.6	0
154	1413	114.7	0
154	1413	114.8	0
154	1413	114.9	0
154	1413	115	0
154	1413	115.1	0
154	1413	115.2	0
154	1413	115.3	0
154	1413	115.4	0
154	1413	115.5	0
154	1413	115.6	0
154	1413	115.7	0
154	1413	115.8	0
154	1413	115.9	0
154	1413	116	0
154	1413	116.1	0
154	1413	116.2	0
154	1413	116.3	0
154	1413	116.4	0
154	1413	116.5	0
154	1413	116.6	0
154	1413	116.7	0
154	1413	116.8	0
154	1413	116.9	0
154	1413	117	0
154	1413	117.1	0
154	1413	117.2	0
154	1413	117.3	0
154	1413	117.4	0
154	1413	117.5	0
154	1413	117.6	0
154	1413	117.7	0
154	1413	117.8	0
154	1413	117.9	0
154	1413	118	0
154	1413	118.1	0
154	1413	118.2	0
154	1413	118.3	0
154	1413	118.4	0
154	1413	118.5	0
154	1413	118.6	0
154	1413	118.7	0
154	1413	118.8	0
154	1413	118.9	0
154	1413	119	0
154	1413	119.1	0
154	1413	119.2	0
154	1413	119.3	0
154	1413	119.4	0
154	1413	119.5	0
154	1413	119.6	0
154	1413	119.7	0
154	1413	119.8	0
154	1413	119.9	0
154	1413	120	0
154	1413	120.1	0
154	1413	120.2	0
154	1413	120.3	0
154	1413	120.4	0
154	1413	120.5	0
154	1413	120.6	0
154	1413	120.7	0
154	1413	120.8	0
154	1413	120.9	0
154	1413	121	0
154	1413	121.1	0
154	1413	121.2	0
154	1413	121.3	0
154	1413	121.4	0
154	1413	121.5	0
154	1413	121.6	0
154	1413	121.7	0
154	1413	121.8	0
154	1413	121.9	0
154	1413	122	0
154	1413	122.1	0
154	1413	122.2	0
154	1413	122.3	0
154	1413	122.4	0
154	1413	122.5	0
154	1413	122.6	0
154	1413	122.7	0
154	1413	122.8	0
154	1413	122.9	0
154	1413	123	0
154	1413	123.1	0
vector 155 Scenario.node[6].app[0] throughput:vector ETV
attr source throughput(packetReceived)
attr title "throughput, vector"
attr unit bps
142	863	71.00055817409	158
146	863	71.00055817409	130
145	863	71.00055817409	158
144	863	71.00055817409	158
143	863	71.00055817409	158
35	202	17.1	15
34	202	17.1	1
34	835	71.00040617409	3
34	862	71.00055817409	1
32	202	17.1	0
32	202	17.1	0
32	202	17.1	2
33	202	17.1	3
147	866	71.00055817409	108
148	866	71.00055817409	1
155	1483	0.1	0
155	1483	0.2	0
155	1483	0.3	0
155	1483	0.4	0
155	1483	0.5	0
155	1483	0.6	0
155	1483	0.7	0
155	1483	0.8	0
155	1483	0.9	0
155	1483	1	0
155	1483	1.1	0
155	1483	1.2	0
155	1483	1.3	0
155	1483	1.4	0
155	1483	1.5	0
155	1483	1.6	0
155	1483	1.7	0
155	1483	1.8	0
155	1483	1.9	0
155	1483	2	0
155	1483	2.1	0
155	1483	2.2	0
155	1483	2.3	0
155	1483	2.4	0
155	1483	2.5	0
155	1483	2.6	0
155	1483	2.7	0
155	1483	2.8	0
155	1483	2.9	0
155	1483	3	0
155	1483	3.1	0
155	1483	3.2	0
155	1483	3.3	0
155	1483	3.4	0
155	1483	3.5	0
155	1483	3.6	0
155	1483	3.7	0
155	1483	3.8	0
155	1483	3.9	0
155	1483	4	0
155	1483	4.1	0
155	1483	4.2	0
155	1483	4.3	0
155	1483	4.4	0
155	1483	4.5	0
155	1483	4.6	0
155	1483	4.7	0
155	1483	4.8	0
155	1483	4.9	0
155	1483	5	0
155	1483	5.1	0
155	1483	5.2	0
155	1483	5.3	0
155	1483	5.4	0
155	1483	5.5	0
155	1483	5.6	0
155	1483	5.7	0
155	1483	5.8	0
155	1483	5.9	0
155	1483	6	0
155	1483	6.1	0
155	1483	6.2	0
155	1483	6.3	0
155	1483	6.4	0
155	1483	6.5	0
155	1483	6.6	0
155	1483	6.7	0
155	1483	6.8	0
155	1483	6.9	0
155	1483	7	0
155	1483	7.1	0
155	1483	7.2	0
155	1483	7.3	0
155	1483	7.4	0
155	1483	7.5	0
155	1483	7.6	0
155	1483	7.7	0
155	1483	7.8	0
155	1483	7.9	0
155	1483	8	0
155	1483	8.1	0
155	1483	8.2	0
155	1483	8.3	0
155	1483	8.4	0
155	1483	8.5	0
155	1483	8.6	0
155	1483	8.7	0
155	1483	8.8	0
155	1483	8.9	0
155	1483	9	0
155	1483	9.1	0
155	1483	9.2	0
155	1483	9.3	0
155	1483	9.4	0
155	1483	9.5	0
155	1483	9.6	0
155	1483	9.7	0
155	1483	9.8	0
155	1483	9.9	0
155	1483	10	0
155	1483	10.1	0
155	1483	10.2	0
155	1483	10.3	0
155	1483	10.4	0
155	1483	10.5	0
155	1483	10.6	0
155	1483	10.7	0
155	1483	10.8	0
155	1483	10.9	0
155	1483	11	0
155	1483	11.1	0
155	1483	11.2	0
155	1483	11.3	0
155	1483	11.4	0
155	1483	11.5	0
155	1483	11.6	0
155	1483	11.7	0
155	1483	11.8	0
155	1483	11.9	0
155	1483	12	0
155	1483	12.1	0
155	1483	12.2	0
155	1483	12.3	0
155	1483	12.4	0
155	1483	12.5	0
155	1483	12.6	0
155	1483	12.7	0
155	1483	12.8	0
155	1483	12.9	0
155	1483	13	0
155	1483	13.1	0
155	1483	13.2	0
155	1483	13.3	0
155	1483	13.4	0
155	1483	13.5	0
155	1483	13.6	0
155	1483	13.7	0
155	1483	13.8	0
155	1483	13.9	0
155	1483	14	0
155	1483	14.1	0
155	1483	14.2	0
155	1483	14.3	0
155	1483	14.4	0
155	1483	14.5	0
155	1483	14.6	0
155	1483	14.7	0
155	1483	14.8	0
155	1483	14.9	0
155	1483	15	0
155	1483	15.1	0
155	1483	15.2	0
155	1483	15.3	0
155	1483	15.4	0
155	1483	15.5	0
155	1483	15.6	0
155	1483	15.7	0
155	1483	15.8	0
155	1483	15.9	0
155	1483	16	0
155	1483	16.1	0
155	1483	16.2	0
155	1483	16.3	0
155	1483	16.4	0
155	1483	16.5	0
155	1483	16.6	0
155	1483	16.7	0
155	1483	16.8	0
155	1483	16.9	0
155	1483	17	0
155	1483	17.1	0
155	1483	17.2	0
155	1483	17.3	0
155	1483	17.4	0
155	1483	17.5	0
155	1483	17.6	0
155	1483	17.7	0
155	1483	17.8	0
155	1483	17.9	0
155	1483	18	0
155	1483	18.1	0
155	1483	18.2	0
155	1483	18.3	0
155	1483	18.4	0
155	1483	18.5	0
155	1483	18.6	0
155	1483	18.7	0
155	1483	18.8	0
155	1483	18.9	0
155	1483	19	0
155	1483	19.1	0
155	1483	19.2	0
155	1483	19.3	0
155	1483	19.4	0
155	1483	19.5	0
155	1483	19.6	0
155	1483	19.7	0
155	1483	19.8	0
155	1483	19.9	0
155	1483	20	0
155	1483	20.1	0
155	1483	20.2	0
155	1483	20.3	0
155	1483	20.4	0
155	1483	20.5	0
155	1483	20.6	0
155	1483	20.7	0
155	1483	20.8	0
155	1483	20.9	0
155	1483	21	0
155	1483	21.1	0
155	1483	21.2	0
155	1483	21.3	0
155	1483	21.4	0
155	1483	21.5	0
155	1483	21.6	0
155	1483	21.7	0
155	1483	21.8	0
155	1483	21.9	0
155	1483	22	0
155	1483	22.1	0
155	1483	22.2	0
155	1483	22.3	0
155	1483	22.4	0
155	1483	22.5	0
155	1483	22.6	0
155	1483	22.7	0
155	1483	22.8	0
155	1483	22.9	0
155	1483	23	0
155	1483	23.1	0
155	1483	23.2	0
155	1483	23.3	0
155	1483	23.4	0
155	1483	23.5	0
155	1483	23.6	0
155	1483	23.7	0
155	1483	23.8	0
155	1483	23.9	0
155	1483	24	0
155	1483	24.1	0
155	1483	24.2	0
155	1483	24.3	0
155	1483	24.4	0
155	1483	24.5	0
155	1483	24.6	0
155	1483	24.7	0
155	1483	24.8	0
155	1483	24.9	0
155	1483	25	0
155	1483	25.1	0
155	1483	25.2	0
155	1483	25.3	0
155	1483	25.4	0
155	1483	25.5	0
155	1483	25.6	0
155	1483	25.7	0
155	1483	25.8	0
155	1483	25.9	0
155	1483	26	0
155	1483	26.1	0
155	1483	26.2	0
155	1483	26.3	0
155	1483	26.4	0
155	1483	26.5	0
155	1483	26.6	0
155	1483	26.7	0
155	1483	26.8	0
155	1483	26.9	0
155	1483	27	0
155	1483	27.1	0
155	1483	27.2	0
155	1483	27.3	0
155	1483	27.4	0
155	1483	27.5	0
155	1483	27.6	0
155	1483	27.7	0
155	1483	27.8	0
155	1483	27.9	0
155	1483	28	0
155	1483	28.1	0
155	1483	28.2	0
155	1483	28.3	0
155	1483	28.4	0
155	1483	28.5	0
155	1483	28.6	0
155	1483	28.7	0
155	1483	28.8	0
155	1483	28.9	0
155	1483	29	0
155	1483	29.1	0
155	1483	29.2	0
[...]
162	2183	101.6	0
162	2183	101.7	0
162	2183	101.8	0
162	2183	101.9	0
162	2183	102	0
162	2183	102.1	0
162	2183	102.2	0
162	2183	102.3	0
162	2183	102.4	0
162	2183	102.5	0
162	2183	102.6	0
162	2183	102.7	0
162	2183	102.8	0
162	2183	102.9	0
162	2183	103	0
162	2183	103.1	0
162	2183	103.2	0
162	2183	103.3	0
162	2183	103.4	0
162	2183	103.5	0
162	2183	103.6	0
162	2183	103.7	0
162	2183	103.8	0
162	2183	103.9	0
162	2183	104	0
162	2183	104.1	0
162	2183	104.2	0
162	2183	104.3	0
162	2183	104.4	0
162	2183	104.5	0
162	2183	104.6	0
162	2183	104.7	0
162	2183	104.8	0
162	2183	104.9	0
162	2183	105	0
162	2183	105.1	0
162	2183	105.2	0
162	2183	105.3	0
162	2183	105.4	0
162	2183	105.5	0
162	2183	105.6	0
162	2183	105.7	0
162	2183	105.8	0
162	2183	105.9	0
162	2183	106	0
162	2183	106.1	0
162	2183	106.2	0
162	2183	106.3	0
162	2183	106.4	0
162	2183	106.5	0
162	2183	106.6	0
162	2183	106.7	0
162	2183	106.8	0
162	2183	106.9	0
162	2183	107	0
162	2183	107.1	0
162	2183	107.2	0
162	2183	107.3	0
162	2183	107.4	0
162	2183	107.5	0
162	2183	107.6	0
162	2183	107.7	0
162	2183	107.8	0
162	2183	107.9	0
162	2183	108	0
162	2183	108.1	0
162	2183	108.2	0
162	2183	108.3	0
162	2183	108.4	0
162	2183	108.5	0
162	2183	108.6	0
162	2183	108.7	0
162	2183	108.8	0
162	2183	108.9	0
162	2183	109	0
162	2183	109.1	0
162	2183	109.2	0
162	2183	109.3	0
162	2183	109.4	0
162	2183	109.5	0
162	2183	109.6	0
162	2183	109.7	0
162	2183	109.8	0
162	2183	109.9	0
162	2183	110	0
162	2183	110.1	0
162	2183	110.2	0
162	2183	110.3	0
162	2183	110.4	0
162	2183	110.5	0
162	2183	110.6	0
162	2183	110.7	0
162	2183	110.8	0
162	2183	110.9	0
162	2183	111	0
162	2183	111.1	0
162	2183	111.2	0
162	2183	111.3	0
162	2183	111.4	0
162	2183	111.5	0
162	2183	111.6	0
162	2183	111.7	0
162	2183	111.8	0
162	2183	111.9	0
162	2183	112	0
162	2183	112.1	0
162	2183	112.2	0
162	2183	112.3	0
162	2183	112.4	0
162	2183	112.5	0
162	2183	112.6	0
162	2183	112.7	0
162	2183	112.8	0
162	2183	112.9	0
162	2183	113	0
162	2183	113.1	0
162	2183	113.2	0
162	2183	113.3	0
162	2183	113.4	0
162	2183	113.5	0
162	2183	113.6	0
162	2183	113.7	0
162	2183	113.8	0
162	2183	113.9	0
162	2183	114	0
162	2183	114.1	0
162	2183	114.2	0
162	2183	114.3	0
162	2183	114.4	0
162	2183	114.5	0
162	2183	114.6	0
162	2183	114.7	0
162	2183	114.8	0
162	2183	114.9	0
162	2183	115	0
162	2183	115.1	0
162	2183	115.2	0
162	2183	115.3	0
162	2183	115.4	0
162	2183	115.5	0
162	2183	115.6	0
162	2183	115.7	0
162	2183	115.8	0
162	2183	115.9	0
162	2183	116	0
162	2183	116.1	0
162	2183	116.2	0
162	2183	116.3	0
162	2183	116.4	0
162	2183	116.5	0
162	2183	116.6	0
162	2183	116.7	0
162	2183	116.8	0
162	2183	116.9	0
162	2183	117	0
162	2183	117.1	0
162	2183	117.2	0
162	2183	117.3	0
162	2183	117.4	0
162	2183	117.5	0
162	2183	117.6	0
162	2183	117.7	0
162	2183	117.8	0
162	2183	117.9	0
162	2183	118	0
162	2183	118.1	0
162	2183	118.2	0
162	2183	118.3	0
162	2183	118.4	0
162	2183	118.5	0
162	2183	118.6	0
162	2183	118.7	0
162	2183	118.8	0
162	2183	118.9	0
162	2183	119	0
162	2183	119.1	0
162	2183	119.2	0
162	2183	119.3	0
162	2183	119.4	0
162	2183	119.5	0
162	2183	119.6	0
162	2183	119.7	0
162	2183	119.8	0
162	2183	119.9	0
162	2183	120	0
162	2183	120.1	0
162	2183	120.2	0
162	2183	120.3	0
162	2183	120.4	0
162	2183	120.5	0
162	2183	120.6	0
162	2183	120.7	0
162	2183	120.8	0
162	2183	120.9	0
162	2183	121	0
162	2183	121.1	0
162	2183	121.2	0
162	2183	121.3	0
162	2183	121.4	0
162	2183	121.5	0
162	2183	121.6	0
162	2183	121.7	0
162	2183	121.8	0
162	2183	121.9	0
162	2183	122	0
162	2183	122.1	0
162	2183	122.2	0
162	2183	122.3	0
162	2183	122.4	0
162	2183	122.5	0
162	2183	122.6	0
162	2183	122.7	0
162	2183	122.8	0
162	2183	122.9	0
162	2183	123	0
162	2183	123.1	0
162	2183	123.2	0
162	2183	123.3	0
162	2183	123.4	0
162	2183	123.5	0
162	2183	123.6	0
162	2183	123.7	0
162	2183	123.8	0
162	2183	123.9	0
162	2183	124	0
162	2183	124.1	0
162	2183	124.2	0
162	2183	124.3	0
162	2183	124.4	0
162	2183	124.5	0
162	2183	124.6	0
162	2183	124.7	0
162	2183	124.8	0
162	2183	124.9	0
162	2183	125	0
162	2183	125.1	0
162	2183	125.2	0
162	2183	125.3	0
162	2183	125.4	0
162	2183	125.5	0
162	2183	125.6	0
162	2183	125.7	0
162	2183	125.8	0
162	2183	125.9	0
162	2183	126	0
162	2183	126.1	0
162	2183	126.2	0
162	2183	126.3	0
162	2183	126.4	0
162	2183	126.5	0
162	2183	126.6	0
162	2183	126.7	0
162	2183	126.8	0
162	2183	126.9	0
162	2183	127	0
162	2183	127.1	0
162	2183	127.2	0
162	2183	127.3	0
162	2183	127.4	0
162	2183	127.5	0
162	2183	127.6	0
162	2183	127.7	0
162	2183	127.8	0
162	2183	127.9	0
162	2183	128	0
162	2183	128.1	0
162	2183	128.2	0
162	2183	128.3	0
162	2183	128.4	0
162	2183	128.5	0
162	2183	128.6	0
162	2183	128.7	0
162	2183	128.8	0
162	2183	128.9	0
162	2183	129	0
162	2183	129.1	0
162	2183	129.2	0
162	2183	129.3	0
162	2183	129.4	0
162	2183	129.5	0
162	2183	129.6	0
162	2183	129.7	0
162	2183	129.8	0
162	2183	129.9	0
162	2183	130	0
162	2183	130.1	0
162	2183	130.2	0
162	2183	130.3	0
162	2183	130.4	0
162	2183	130.5	0
162	2183	130.6	0
162	2183	130.7	0
162	2183	130.8	0
162	2183	130.9	0
162	2183	131	0
162	2183	131.1	0
162	2183	131.2	0
162	2183	131.3	0
162	2183	131.4	0
162	2183	131.5	0
162	2183	131.6	0
162	2183	131.7	0
162	2183	131.8	0
162	2183	131.9	0
162	2183	132	0
162	2183	132.1	0
162	2183	132.2	0
162	2183	132.3	0
162	2183	132.4	0
162	2183	132.5	0
162	2183	132.6	0
162	2183	132.7	0
162	2183	132.8	0
162	2183	132.9	0
162	2183	133	0
162	2183	133.1	0
162	2183	133.2	0
162	2183	133.3	0
162	2183	133.4	0
162	2183	133.5	0
162	2183	133.6	0
162	2183	133.7	0
162	2183	133.8	0
162	2183	133.9	0
162	2183	134	0
162	2183	134.1	0
162	2183	134.2	0
162	2183	134.3	0
162	2183	134.4	0
162	2183	134.5	0
162	2183	134.6	0
162	2183	134.7	0
162	2183	134.8	0
162	2183	134.9	0
162	2183	135	0
162	2183	135.1	0
162	2183	135.2	0
162	2183	135.3	0
162	2183	135.4	0
162	2183	135.5	0
162	2183	135.6	0
162	2183	135.7	0
162	2183	135.8	0
162	2183	135.9	0
162	2183	136	0
162	2183	136.1	0
162	2183	136.2	0
162	2183	136.3	0
162	2183	136.4	0
162	2183	136.5	0
162	2183	136.6	0
162	2183	136.7	0
162	2183	136.8	0
162	2183	136.9	0
162	2183	137	0
162	2183	137.1	0
162	2183	137.2	0
162	2183	137.3	0
162	2183	137.4	0
162	2183	137.5	0
162	2183	137.6	0
162	2183	137.7	0
162	2183	137.8	0
162	2183	137.9	0
162	2183	138	0
162	2183	138.1	0
162	2183	138.2	0
162	2183	138.3	0
162	2183	138.4	0
162	2183	138.5	0
162	2183	138.6	0
162	2183	138.7	0
162	2183	138.8	0
162	2183	138.9	0
162	2183	139	0
162	2183	139.1	0
162	2183	139.2	0
162	2183	139.3	0
162	2183	139.4	0
162	2183	139.5	0
162	2183	139.6	0
162	2183	139.7	0
162	2183	139.8	0
162	2183	139.9	0
162	2183	140	0
162	2183	140.1	0
162	2183	140.2	0
162	2183	140.3	0
162	2183	140.4	0
162	2183	140.5	0
162	2183	140.6	0
162	2183	140.7	0
162	2183	140.8	0
162	2183	140.9	0
162	2183	141	0
162	2183	141.1	0
162	2183	141.2	0
162	2183	141.3	0
162	2183	141.4	0
162	2183	141.5	0
162	2183	141.6	0
162	2183	141.7	0
162	2183	141.8	0
162	2183	141.9	0
162	2183	142	0
162	2183	142.1	0
162	2183	142.2	0
162	2183	142.3	0
162	2183	142.4	0
162	2183	142.5	0
162	2183	142.6	0
162	2183	142.7	0
162	2183	142.8	0
162	2183	142.9	0
162	2183	143	0
162	2183	143.1	0
162	2183	143.2	0
162	2183	143.3	0
162	2183	143.4	0
162	2183	143.5	0
162	2183	143.6	0
162	2183	143.7	0
162	2183	143.8	0
162	2183	143.9	0
162	2183	144	0
162	2183	144.1	0
162	2183	144.2	0
162	2183	144.3	0
162	2183	144.4	0
162	2183	144.5	0
162	2183	144.6	0
162	2183	144.7	0
162	2183	144.8	0
162	2183	144.9	0
162	2183	145	0
162	2183	145.1	0
162	2183	145.2	0
162	2183	145.3	0
162	2183	145.4	0
162	2183	145.5	0
162	2183	145.6	0
162	2183	145.7	0
162	2183	145.8	0
162	2183	145.9	0
162	2183	146	0
162	2183	146.1	0
162	2183	146.2	0
162	2183	146.3	0
162	2183	146.4	0
162	2183	146.5	0
162	2183	146.6	0
162	2183	146.7	0
162	2183	146.8	0
162	2183	146.9	0
162	2183	147	0
162	2183	147.1	0
162	2183	147.2	0
162	2183	147.3	0
162	2183	147.4	0
162	2183	147.5	0
162	2183	147.6	0
162	2183	147.7	0
162	2183	147.8	0
162	2183	147.9	0
162	2183	148	0
162	2183	148.1	0
162	2183	148.2	0
162	2183	148.3	0
162	2183	148.4	0
162	2183	148.5	0
162	2183	148.6	0
162	2183	148.7	0
162	2183	148.8	0
162	2183	148.9	0
162	2183	149	0
162	2183	149.1	0
162	2183	149.2	0
162	2183	149.3	0
162	2183	149.4	0
162	2183	149.5	0
162	2183	149.6	0
162	2183	149.7	0
162	2183	149.8	0
162	2183	149.9	0
162	2183	150	0
162	2183	150.1	0
162	2183	150.2	0
162	2183	150.3	0
162	2183	150.4	0
162	2183	150.5	0
162	2183	150.6	0
162	2183	150.7	0
162	2183	150.8	0
162	2183	150.9	0
162	2183	151	0
162	2183	151.1	0
162	2183	151.2	0
162	2183	151.3	0
162	2183	151.4	0
162	2183	151.5	0
162	2183	151.6	0
162	2183	151.7	0
162	2183	151.8	0
162	2183	151.9	0
162	2183	152	0
162	2183	152.1	0
162	2183	152.2	0
162	2183	152.3	0
162	2183	152.4	0
162	2183	152.5	0
162	2183	152.6	0
162	2183	152.7	0
162	2183	152.8	0
162	2183	152.9	0
162	2183	153	0
162	2183	153.1	0
162	2183	153.2	0
162	2183	153.3	0
162	2183	153.4	0
162	2183	153.5	0
162	2183	153.6	0
162	2183	153.7	0
162	2183	153.8	0
162	2183	153.9	0
162	2183	154	0
162	2183	154.1	0
162	2183	154.2	0
162	2183	154.3	0
162	2183	154.4	0
162	2183	154.5	0
162	2183	154.6	0
162	2183	154.7	0
162	2183	154.8	0
162	2183	154.9	0
162	2183	155	0
162	2183	155.1	0
162	2183	155.2	0
162	2183	155.3	0
162	2183	155.4	0
162	2183	155.5	0
162	2183	155.6	0
162	2183	155.7	0
162	2183	155.8	0
162	2183	155.9	0
162	2183	156	0
162	2183	156.1	0
162	2183	156.2	0
162	2183	156.3	0
162	2183	156.4	0
162	2183	156.5	0
162	2183	156.6	0
162	2183	156.7	0
162	2183	156.8	0
162	2183	156.9	0
162	2183	157	0
162	2183	157.1	0
162	2183	157.2	0
162	2183	157.3	0
162	2183	157.4	0
162	2183	157.5	0
162	2183	157.6	0
162	2183	157.7	0
162	2183	157.8	0
162	2183	157.9	0
162	2183	158	0
162	2183	158.1	0
162	2183	158.2	0
162	2183	158.3	0
162	2183	158.4	0
162	2183	158.5	0
162	2183	158.6	0
162	2183	158.7	0
162	2183	158.8	0
162	2183	158.9	0
162	2183	159	0
162	2183	159.1	0
162	2183	159.2	0
162	2183	159.3	0
162	2183	159.4	0
162	2183	159.5	0
162	2183	159.6	0
162	2183	159.7	0
162	2183	159.8	0
162	2183	159.9	0
162	2183	160	0
162	2183	160.1	0
162	2183	160.2	0
162	2183	160.3	0
162	2183	160.4	0
162	2183	160.5	0
162	2183	160.6	0
162	2183	160.7	0
162	2183	160.8	0
162	2183	160.9	0
162	2183	161	0
162	2183	161.1	0
162	2183	161.2	0
162	2183	161.3	0
162	2183	161.4	0
162	2183	161.5	0
162	2183	161.6	0
162	2183	161.7	0
162	2183	161.8	0
162	2183	161.9	0
162	2183	162	0
162	2183	162.1	0
162	2183	162.2	0
162	2183	162.3	0
162	2183	162.4	0
162	2183	162.5	0
162	2183	162.6	0
162	2183	162.7	0
162	2183	162.8	0
162	2183	162.9	0
162	2183	163	0
162	2183	163.1	0
162	2183	163.2	0
162	2183	163.3	0
162	2183	163.4	0
162	2183	163.5	0
162	2183	163.6	0
162	2183	163.7	0
162	2183	163.8	0
162	2183	163.9	0
162	2183	164	0
162	2183	164.1	0
162	2183	164.2	0
162	2183	164.3	0
162	2183	164.4	0
162	2183	164.5	0
162	2183	164.6	0
162	2183	164.7	0
162	2183	164.8	0
162	2183	164.9	0
162	2183	165	0
162	2183	165.1	0
162	2183	165.2	0
162	2183	165.3	0
162	2183	165.4	0
162	2183	165.5	0
162	2183	165.6	0
162	2183	165.7	0
162	2183	165.8	0
162	2183	165.9	0
162	2183	166	0
162	2183	166.1	0
162	2183	166.2	0
162	2183	166.3	0
162	2183	166.4	0
162	2183	166.5	0
162	2183	166.6	0
162	2183	166.7	0
162	2183	166.8	0
162	2183	166.9	0
162	2183	167	0
162	2183	167.1	0
162	2183	167.2	0
162	2183	167.3	0
162	2183	167.4	0
162	2183	167.5	0
162	2183	167.6	0
162	2183	167.7	0
162	2183	167.8	0
162	2183	167.9	0
162	2183	168	0
162	2183	168.1	0
162	2183	168.2	0
162	2183	168.3	0
162	2183	168.4	0
162	2183	168.5	0
162	2183	168.6	0
162	2183	168.7	0
162	2183	168.8	0
162	2183	168.9	0
162	2183	169	0
162	2183	169.1	0
162	2183	169.2	0
162	2183	169.3	0
162	2183	169.4	0
162	2183	169.5	0
162	2183	169.6	0
162	2183	169.7	0
162	2183	169.8	0
162	2183	169.9	0
162	2183	170	0
162	2183	170.1	0
162	2183	170.2	0
162	2183	170.3	0
162	2183	170.4	0
162	2183	170.5	0
162	2183	170.6	0
162	2183	170.7	0
162	2183	170.8	0
162	2183	170.9	0
162	2183	171	0
162	2183	171.1	0
162	2183	171.2	0
162	2183	171.3	0
162	2183	171.4	0
162	2183	171.5	0
162	2183	171.6	0
162	2183	171.7	0
162	2183	171.8	0
162	2183	171.9	0
162	2183	172	0
162	2183	172.1	0
162	2183	172.2	0
162	2183	172.3	0
162	2183	172.4	0
162	2183	172.5	0
162	2183	172.6	0
162	2183	172.7	0
162	2183	172.8	0
162	2183	172.9	0
162	2183	173	0
162	2183	173.1	0
162	2183	173.2	0
162	2183	173.3	0
162	2183	173.4	0
162	2183	173.5	0
162	2183	173.6	0
162	2183	173.7	0
162	2183	173.8	0
162	2183	173.9	0
162	2183	174	0
162	2183	174.1	0
162	2183	174.2	0
162	2183	174.3	0
162	2183	174.4	0
162	2183	174.5	0
162	2183	174.6	0
162	2183	174.7	0
162	2183	174.8	0
162	2183	174.9	0
162	2183	175	0
162	2183	175.1	0
162	2183	175.2	0
162	2183	175.3	0
162	2183	175.4	0
162	2183	175.5	0
162	2183	175.6	0
162	2183	175.7	0
162	2183	175.8	0
162	2183	175.9	0
162	2183	176	0
162	2183	176.1	0
162	2183	176.2	0
162	2183	176.3	0
162	2183	176.4	0
162	2183	176.5	0
162	2183	176.6	0
162	2183	176.7	0
162	2183	176.8	0
162	2183	176.9	0
162	2183	177	0
162	2183	177.1	0
162	2183	177.2	0
162	2183	177.3	0
162	2183	177.4	0
162	2183	177.5	0
162	2183	177.6	0
162	2183	177.7	0
162	2183	177.8	0
162	2183	177.9	0
162	2183	178	0
162	2183	178.1	0
162	2183	178.2	0
162	2183	178.3	0
162	2183	178.4	0
162	2183	178.5	0
162	2183	178.6	0
162	2183	178.7	0
162	2183	178.8	0
162	2183	178.9	0
162	2183	179	0
162	2183	179.1	0
162	2183	179.2	0
162	2183	179.3	0
162	2183	179.4	0
162	2183	179.5	0
162	2183	179.6	0
162	2183	179.7	0
162	2183	179.8	0
162	2183	179.9	0
162	2183	180	0
162	2183	180.1	0
162	2183	180.2	0
162	2183	180.3	0
162	2183	180.4	0
162	2183	180.5	0
162	2183	180.6	0
162	2183	180.7	0
162	2183	180.8	0
162	2183	180.9	0
162	2183	181	0
162	2183	181.1	0
162	2183	181.2	0
162	2183	181.3	0
162	2183	181.4	0
162	2183	181.5	0
162	2183	181.6	0
162	2183	181.7	0
162	2183	181.8	0
162	2183	181.9	0
162	2183	182	0
162	2183	182.1	0
162	2183	182.2	0
162	2183	182.3	0
162	2183	182.4	0
162	2183	182.5	0
162	2183	182.6	0
162	2183	182.7	0
162	2183	182.8	0
162	2183	182.9	0
162	2183	183	0
162	2183	183.1	0
162	2183	183.2	0
162	2183	183.3	0
162	2183	183.4	0
162	2183	183.5	0
162	2183	183.6	0
162	2183	183.7	0
162	2183	183.8	0
162	2183	183.9	0
162	2183	184	0
162	2183	184.1	0
162	2183	184.2	0
162	2183	184.3	0
162	2183	184.4	0
162	2183	184.5	0
162	2183	184.6	0
162	2183	184.7	0
162	2183	184.8	0
162	2183	184.9	0
162	2183	185	0
162	2183	185.1	0
162	2183	185.2	0
162	2183	185.3	0
162	2183	185.4	0
162	2183	185.5	0
162	2183	185.6	0
162	2183	185.7	0
162	2183	185.8	0
162	2183	185.9	0
162	2183	186	0
162	2183	186.1	0
162	2183	186.2	0
162	2183	186.3	0
162	2183	186.4	0
162	2183	186.5	0
162	2183	186.6	0
162	2183	186.7	0
162	2183	186.8	0
162	2183	186.9	0
162	2183	187	0
162	2183	187.1	0
162	2183	187.2	0
162	2183	187.3	0
162	2183	187.4	0
162	2183	187.5	0
162	2183	187.6	0
162	2183	187.7	0
162	2183	187.8	0
162	2183	187.9	0
162	2183	188	0
162	2183	188.1	0
162	2183	188.2	0
162	2183	188.3	0
162	2183	188.4	0
162	2183	188.5	0
162	2183	188.6	0
162	2183	188.7	0
162	2183	188.8	0
162	2183	188.9	0
162	2183	189	0
162	2183	189.1	0
162	2183	189.2	0
162	2183	189.3	0
162	2183	189.4	0
162	2183	189.5	0
162	2183	189.6	0
162	2183	189.7	0
162	2183	189.8	0
162	2183	189.9	0
162	2183	190	0
162	2183	190.1	0
162	2183	190.2	0
162	2183	190.3	0
162	2183	190.4	0
162	2183	190.5	0
162	2183	190.6	0
162	2183	190.7	0
162	2183	190.8	0
162	2183	190.9	0
162	2183	191	0
162	2183	191.1	0
162	2183	191.2	0
162	2183	191.3	0
162	2183	191.4	0
162	2183	191.5	0
162	2183	191.6	0
162	2183	191.7	0
162	2183	191.8	0
162	2183	191.9	0
162	2183	192	0
162	2183	192.1	0
162	2183	192.2	0
162	2183	192.3	0
162	2183	192.4	0
162	2183	192.5	0
162	2183	192.6	0
162	2183	192.7	0
162	2183	192.8	0
162	2183	192.9	0
162	2183	193	0
162	2183	193.1	0
162	2183	193.2	0
162	2183	193.3	0
162	2183	193.4	0
162	2183	193.5	0
162	2183	193.6	0
162	2183	193.7	0
162	2183	193.8	0
162	2183	193.9	0
162	2183	194	0
162	2183	194.1	0
162	2183	194.2	0
162	2183	194.3	0
162	2183	194.4	0
162	2183	194.5	0
162	2183	194.6	0
162	2183	194.7	0
162	2183	194.8	0
162	2183	194.9	0
162	2183	195	0
162	2183	195.1	0
162	2183	195.2	0
162	2183	195.3	0
162	2183	195.4	0
162	2183	195.5	0
162	2183	195.6	0
162	2183	195.7	0
162	2183	195.8	0
162	2183	195.9	0
162	2183	196	0
162	2183	196.1	0
162	2183	196.2	0
162	2183	196.3	0
162	2183	196.4	0
162	2183	196.5	0
162	2183	196.6	0
162	2183	196.7	0
162	2183	196.8	0
162	2183	196.9	0
162	2183	197	0
162	2183	197.1	0
162	2183	197.2	0
162	2183	197.3	0
162	2183	197.4	0
162	2183	197.5	0
162	2183	197.6	0
162	2183	197.7	0
162	2183	197.8	0
162	2183	197.9	0
162	2183	198	0
162	2183	198.1	0
162	2183	198.2	0
162	2183	198.3	0
162	2183	198.4	0
162	2183	198.5	0
162	2183	198.6	0
162	2183	198.7	0
162	2183	198.8	0
162	2183	198.9	0
162	2183	199	0
162	2183	199.1	0
162	2183	199.2	0
162	2183	199.3	0
162	2183	199.4	0
162	2183	199.5	0
162	2183	199.6	0
162	2183	199.7	0
162	2183	199.8	0
162	2183	199.9	0
162	2183	200	0
0	0	0	0
0	0	0	0
0	0	0	2
0	832	71.000406023889	3
0	859	71.000558023889	2
1	0	0	3
2	0	0	0
2	0	0	0
2	0	0	2
2	828	71.000405519393	3
2	857	71.000557519393	2
3	0	0	3
4	0	0	1
4	773	71.000001023889	3
4	806	71.000153023889	1
4	832	71.000406023889	0
4	859	71.000558023889	1
5	0	0	1
5	771	71.000000519393	3
5	788	71.000152519393	1
5	828	71.000405519393	0
5	857	71.000557519393	1
6	0	0	15
7	0	0	15
76	789	71.000152519393	158
77	789	71.000152519393	158
78	789	71.000152519393	158
79	789	71.000152519393	158
80	789	71.000152519393	130
81	792	71.000152519393	108
81	800	71.000152519393	108
82	792	71.000152519393	1
83	793	71.000152519393	100
84	794	71.000152519393	108
85	796	71.000152519393	128
86	796	71.000152519393	128
87	799	71.000152519393	130
88	799	71.000152519393	158
89	799	71.000152519393	1
89	827	71.000405519393	0
90	799	71.000152519393	15
91	799	71.000152519393	1
91	826	71.000405519393	0
92	800	71.000152519393	1
100	807	71.000153023889	158
101	807	71.000153023889	158
102	807	71.000153023889	158
103	807	71.000153023889	158
104	807	71.000153023889	130
105	810	71.000153023889	108
105	818	71.000153023889	108
106	810	71.000153023889	1
107	811	71.000153023889	100
108	812	71.000153023889	108
109	814	71.000153023889	128
110	814	71.000153023889	128
111	817	71.000153023889	130
112	817	71.000153023889	158
113	817	71.000153023889	1
113	831	71.000406023889	0
114	817	71.000153023889	15
115	817	71.000153023889	1
115	830	71.000406023889	0
116	818	71.000153023889	1
117	827	71.000405519393	158
118	827	71.000405519393	0.000253
119	827	71.000405519393	1
119	856	71.000557519393	0
120	827	71.000405519393	12000000
121	827	71.000405519393	158
122	827	71.000405519393	1
122	856	71.000557519393	0
123	828	71.000405519393	1
123	829	71.000405519393	2
123	856	71.000557519393	1
123	857	71.000557519393	0
124	831	71.000406023889	158
125	831	71.000406023889	0.000253
126	831	71.000406023889	1
126	858	71.000558023889	0
127	831	71.000406023889	12000000
128	831	71.000406023889	158
129	831	71.000406023889	1
129	858	71.000558023889	0
130	832	71.000406023889	1
130	833	71.000406023889	2
130	858	71.000558023889	1
130	859	71.000558023889	0
131	856	71.000557519393	158
132	856	71.000557519393	158
133	856	71.000557519393	158
134	856	71.000557519393	0.000152
135	858	71.000558023889	158
136	858	71.000558023889	158
137	858	71.000558023889	158
138	858	71.000558023889	0.000152

