version 2
run plain-0-20250607-02:16:32-35800
attr configname plain
attr datetime 20250607-02:16:32
attr experiment plain
attr inifile omnetpp.ini
attr iterationvars ""
attr iterationvarsf ""
attr measurement ""
attr network Scenario
attr processid 35800
attr repetition 0
attr replication #0
attr resultdir results
attr runnumber 0
attr seedset 0
param *.node[*].numApps 1
param *.node[*].app[0].typename "\"v2xsimulation.veins_inet.VeinsInetSampleApplication\""
param *.node[*].app[0].interface "\"wlan0\""
param *.node[*].wlan[0].opMode "\"p\""
param *.node[*].wlan[0].radio.typename "\"Ieee80211DimensionalRadio\""
param *.node[*].wlan[0].radio.bandName "\"5.9 GHz\""
param *.node[*].wlan[0].radio.channelNumber 3
param *.node[*].wlan[0].radio.transmitter.power 20mW
param *.node[*].wlan[0].radio.bandwidth "10 MHz"
param *.node[*].wlan[*].radio.antenna.mobility.typename "\"AttachedMobility\""
param *.node[*].wlan[*].radio.antenna.mobility.mobilityModule "\"^.^.^.^.mobility\""
param *.node[*].wlan[*].radio.antenna.mobility.offsetX -2.5m
param *.node[*].wlan[*].radio.antenna.mobility.offsetZ 1.5m
param *.node[*].wlan[*].radio.antenna.mobility.constraintAreaMinX 0m
param *.node[*].wlan[*].radio.antenna.mobility.constraintAreaMaxX 0m
param *.node[*].wlan[*].radio.antenna.mobility.constraintAreaMinY 0m
param *.node[*].wlan[*].radio.antenna.mobility.constraintAreaMaxY 0m
param *.node[*].wlan[*].radio.antenna.mobility.constraintAreaMinZ 0m
param *.node[*].wlan[*].radio.antenna.mobility.constraintAreaMaxZ 0m
param *.node[*].app[0].localPort 1234
param *.node[*].app[0].destAddress "\"224.0.0.1\""
param *.node[*].app[0].destPort 9001
param *.rsu1.numApps 1
param *.rsu1.app[0].typename "\"v2xsimulation.veins_inet.VeinsInetRSUApplication\""
param *.rsu1.app[0].interface "\"wlan0\""
param *.rsu2.numApps 1
param *.rsu2.app[0].typename "\"v2xsimulation.veins_inet.VeinsInetRSUApplication\""
param *.rsu2.app[0].interface "\"wlan0\""
param *.rsu1.app[0].interfaceTableModule "\"^.interfaceTable\""
param *.rsu2.app[0].interfaceTableModule "\"^.interfaceTable\""
param *.rsu1.wlan[0].opMode "\"p\""
param *.rsu1.wlan[0].radio.typename "\"Ieee80211DimensionalRadio\""
param *.rsu1.wlan[0].radio.bandName "\"5.9 GHz\""
param *.rsu1.wlan[0].radio.channelNumber 3
param *.rsu1.wlan[0].radio.transmitter.power 20mW
param *.rsu1.wlan[0].radio.bandwidth "10 MHz"
param *.rsu2.wlan[0].opMode "\"p\""
param *.rsu2.wlan[0].radio.typename "\"Ieee80211DimensionalRadio\""
param *.rsu2.wlan[0].radio.bandName "\"5.9 GHz\""
param *.rsu2.wlan[0].radio.channelNumber 3
param *.rsu2.wlan[0].radio.transmitter.power 20mW
param *.rsu2.wlan[0].radio.bandwidth "10 MHz"
param *.**.ipv4.configurator.typename "\"HostAutoConfigurator\""
param *.**.ipv4.configurator.interfaces "\"wlan0\""
param *.**.ipv4.configurator.mcastGroups "\"224.0.0.1\""
param *.rsu1.app[0].localPort 9001
param *.rsu2.app[0].localPort 9001
param *.node[*].mobility.typename "\"VeinsInetMobility\""
param *.manager.updateInterval 0.1s
param *.manager.host "\"localhost\""
param *.manager.port 9999
param *.manager.autoShutdown true
param *.manager.launchConfig "xmldoc(\"nh29.launchd.xml\")"
param *.manager.moduleType "\"v2xsimulation.veins_inet.VeinsInetCar\""
param *.physicalEnvironment.config "xmldoc(\"obstacles.xml\")"
param *.radioMedium.obstacleLoss.typename "\"IdealObstacleLoss\""

vector 0 Scenario.rsu1.wlan[0].radio radioMode:vector ETV
attr interpolationmode sample-hold
attr source radioModeChanged
attr title "Radio mode, vector"
vector 1 Scenario.rsu1.wlan[0].radio radioChannel:vector ETV
attr interpolationmode sample-hold
attr source radioChannelChanged
attr title "Radio channel, vector"
vector 2 Scenario.rsu2.wlan[0].radio radioMode:vector ETV
attr interpolationmode sample-hold
attr source radioModeChanged
attr title "Radio mode, vector"
vector 3 Scenario.rsu2.wlan[0].radio radioChannel:vector ETV
attr interpolationmode sample-hold
attr source radioChannelChanged
attr title "Radio channel, vector"
vector 4 Scenario.rsu1.wlan[0].radio receptionState:vector ETV
attr interpolationmode sample-hold
attr source receptionStateChanged
attr title "Radio reception state, vector"
vector 5 Scenario.rsu2.wlan[0].radio receptionState:vector ETV
attr interpolationmode sample-hold
attr source receptionStateChanged
attr title "Radio reception state, vector"
vector 6 Scenario.rsu1.wlan[0].mac.dcf.recoveryProcedure contentionWindowChanged:vector ETV
attr interpolationmode sample-hold
attr title "contention window, vector"
vector 7 Scenario.rsu2.wlan[0].mac.dcf.recoveryProcedure contentionWindowChanged:vector ETV
attr interpolationmode sample-hold
attr title "contention window, vector"
vector 8 Scenario.node[0].wlan[0].radio radioMode:vector ETV
attr interpolationmode sample-hold
attr source radioModeChanged
attr title "Radio mode, vector"
vector 9 Scenario.node[0].wlan[0].radio radioChannel:vector ETV
attr interpolationmode sample-hold
attr source radioChannelChanged
attr title "Radio channel, vector"
vector 10 Scenario.node[0].wlan[0].radio receptionState:vector ETV
attr interpolationmode sample-hold
attr source receptionStateChanged
attr title "Radio reception state, vector"
vector 11 Scenario.node[0].wlan[0].mac.dcf.recoveryProcedure contentionWindowChanged:vector ETV
attr interpolationmode sample-hold
attr title "contention window, vector"
vector 12 Scenario.node[1].wlan[0].radio radioMode:vector ETV
attr interpolationmode sample-hold
attr source radioModeChanged
attr title "Radio mode, vector"
vector 13 Scenario.node[1].wlan[0].radio radioChannel:vector ETV
attr interpolationmode sample-hold
attr source radioChannelChanged
attr title "Radio channel, vector"
vector 14 Scenario.node[1].wlan[0].radio receptionState:vector ETV
attr interpolationmode sample-hold
attr source receptionStateChanged
attr title "Radio reception state, vector"
vector 15 Scenario.node[1].wlan[0].mac.dcf.recoveryProcedure contentionWindowChanged:vector ETV
attr interpolationmode sample-hold
attr title "contention window, vector"
vector 16 Scenario.node[2].wlan[0].radio radioMode:vector ETV
attr interpolationmode sample-hold
attr source radioModeChanged
attr title "Radio mode, vector"
vector 17 Scenario.node[2].wlan[0].radio radioChannel:vector ETV
attr interpolationmode sample-hold
attr source radioChannelChanged
attr title "Radio channel, vector"
vector 18 Scenario.node[2].wlan[0].radio receptionState:vector ETV
attr interpolationmode sample-hold
attr source receptionStateChanged
attr title "Radio reception state, vector"
vector 19 Scenario.node[2].wlan[0].mac.dcf.recoveryProcedure contentionWindowChanged:vector ETV
attr interpolationmode sample-hold
attr title "contention window, vector"
vector 20 Scenario.node[3].wlan[0].radio radioMode:vector ETV
attr interpolationmode sample-hold
attr source radioModeChanged
attr title "Radio mode, vector"
vector 21 Scenario.node[3].wlan[0].radio radioChannel:vector ETV
attr interpolationmode sample-hold
attr source radioChannelChanged
attr title "Radio channel, vector"
vector 22 Scenario.node[3].wlan[0].radio receptionState:vector ETV
attr interpolationmode sample-hold
attr source receptionStateChanged
attr title "Radio reception state, vector"
vector 23 Scenario.node[3].wlan[0].mac.dcf.recoveryProcedure contentionWindowChanged:vector ETV
attr interpolationmode sample-hold
attr title "contention window, vector"
vector 24 Scenario.node[0].udp packetSent:vector(packetBytes) ETV
attr interpolationmode none
attr source packetSent
attr title "packets sent, vector(packetBytes)"
vector 25 Scenario.node[0].lo[0].lo rcvdPkFromHl:vector(packetBytes) ETV
attr interpolationmode none
attr source packetReceivedFromUpper
attr title "packets received from higher layer, vector(packetBytes)"
vector 26 Scenario.node[0].lo[0].lo passedUpPk:vector(packetBytes) ETV
attr interpolationmode none
attr source packetSentToUpper
attr title "packets passed to higher layer, vector(packetBytes)"
vector 27 Scenario.node[0].wlan[0].mac packetReceivedFromUpper:vector(packetBytes) ETV
attr interpolationmode none
attr title "packets received from upper layer, vector(packetBytes)"
vector 28 Scenario.node[0].wlan[0].mac.dcf.channelAccess.pendingQueue packetPushed:vector(packetBytes) ETV
attr interpolationmode none
attr title "packet pushed, vector(packetBytes)"
vector 29 Scenario.node[0].wlan[0].mac.dcf.channelAccess.pendingQueue queueLength:vector ETV
attr interpolationmode sample-hold
attr source "count(packetPushed) - count(packetPopped) - count(packetRemoved) - count(packetDropped)"
attr title "queue length, vector"
vector 30 Scenario.node[0].wlan[0].mac.dcf.channelAccess.contention backoffPeriodGenerated:vector ETV
attr interpolationmode none
attr title "backoff periods, vector"
vector 31 Scenario.node[0].wlan[0].mac.dcf.channelAccess.contention backoffActive:vector ETV
attr interpolationmode sample-hold
attr source count(backoffStarted)-count(backoffStopped)
attr title "backoff active, vector"
vector 32 Scenario.node[0].udp packetReceived:vector(packetBytes) ETV
attr interpolationmode none
attr source packetReceived
attr title "packets received, vector(packetBytes)"
vector 33 Scenario.node[0].udp droppedPkWrongPort:vector(count) ETV
attr interpolationmode none
attr source packetDropReasonIsNoPortFound(packetDropped)
attr title "packets dropped (wrong port), vector(count)"
vector 34 Scenario.node[0].wlan[0].mac.dcf.channelAccess.pendingQueue packetPopped:vector(packetBytes) ETV
attr interpolationmode none
attr title "packet popped, vector(packetBytes)"
vector 35 Scenario.node[0].wlan[0].mac.dcf.channelAccess.pendingQueue queueingTime:vector ETV
attr interpolationmode none
attr source queueingTime(packetPopped)
attr title "queueing times, vector"
attr unit s
vector 36 Scenario.node[0].wlan[0].mac.dcf.channelAccess.inProgressFrames queueLength:vector ETV
attr interpolationmode sample-hold
attr source "count(packetEnqueued) - count(packetDequeued)"
attr title "queue length, vector"
vector 37 Scenario.node[0].wlan[0].mac.dcf datarateSelected:vector ETV
attr interpolationmode none
attr title "datarates selected, vector"
vector 38 Scenario.node[0].wlan[0].mac packetSentToLower:vector(packetBytes) ETV
attr interpolationmode none
attr title "packets sent to lower layer, vector(packetBytes)"
vector 39 Scenario.node[0].wlan[0].mac.dcf frameSequenceActive:vector ETV
attr interpolationmode sample-hold
attr source count(frameSequenceStarted)-count(frameSequenceFinished)
attr title "frame sequence active, vector"
vector 40 Scenario.node[0].wlan[0].radio transmissionState:vector ETV
attr interpolationmode sample-hold
attr source transmissionStateChanged
attr title "Radio transmission state, vector"
vector 41 Scenario.node[0].wlan[0].mac.dcf packetSentToPeer:vector(packetBytes) ETV
attr interpolationmode none
attr title "packets sent, vector(packetBytes)"
vector 42 Scenario.node[0].wlan[0].mac.dcf packetSentToPeerMulticast:vector(packetBytes) ETV
attr interpolationmode none
attr source ieee80211Multicast(packetSentToPeer)
attr title "packets sent: multicast, vector(packetBytes)"
vector 43 Scenario.node[0].wlan[0].mac.dcf packetSentToPeerWithoutRetry:vector(packetBytes) ETV
attr interpolationmode none
attr source ieee80211NotRetry(packetSentToPeer)
attr title "packets sent: without retry, vector(packetBytes)"
vector 44 Scenario.node[0].wlan[0].mac.dcf.channelAccess.inProgressFrames queueingTime:vector ETV
attr interpolationmode none
attr source queueingTime(packetDequeued)
attr title "queueing times, vector"
vector 45 Scenario.node[2].wlan[0].mac packetReceivedFromLower:vector(packetBytes) ETV
attr interpolationmode none
attr title "packets received from lower layer, vector(packetBytes)"
vector 46 Scenario.node[2].wlan[0].mac.dcf packetReceivedFromPeer:vector(packetBytes) ETV
attr interpolationmode none
attr title "packets received, vector(packetBytes)"
vector 47 Scenario.node[2].wlan[0].mac.dcf packetReceivedFromPeerMulticast:vector(packetBytes) ETV
attr interpolationmode none
attr source ieee80211Multicast(packetReceivedFromPeer)
attr title "packets received: multicast, vector(packetBytes)"
vector 48 Scenario.node[2].wlan[0].mac.dcf packetReceivedFromPeerWithoutRetry:vector(packetBytes) ETV
attr interpolationmode none
attr source ieee80211NotRetry(packetReceivedFromPeer)
attr title "packets received: without retry, vector(packetBytes)"
vector 49 Scenario.node[2].wlan[0].mac packetSentToUpper:vector(packetBytes) ETV
attr interpolationmode none
attr title "packets sent to upper layer, vector(packetBytes)"
vector 50 Scenario.node[2].udp packetReceived:vector(packetBytes) ETV
attr interpolationmode none
attr source packetReceived
attr title "packets received, vector(packetBytes)"
vector 51 Scenario.node[2].udp droppedPkWrongPort:vector(count) ETV
attr interpolationmode none
attr source packetDropReasonIsNoPortFound(packetDropped)
attr title "packets dropped (wrong port), vector(count)"
vector 52 Scenario.rsu2.wlan[0].mac packetReceivedFromLower:vector(packetBytes) ETV
attr interpolationmode none
attr title "packets received from lower layer, vector(packetBytes)"
vector 53 Scenario.rsu2.wlan[0].mac.dcf packetReceivedFromPeer:vector(packetBytes) ETV
attr interpolationmode none
attr title "packets received, vector(packetBytes)"
vector 54 Scenario.rsu2.wlan[0].mac.dcf packetReceivedFromPeerMulticast:vector(packetBytes) ETV
attr interpolationmode none
attr source ieee80211Multicast(packetReceivedFromPeer)
attr title "packets received: multicast, vector(packetBytes)"
vector 55 Scenario.rsu2.wlan[0].mac.dcf packetReceivedFromPeerWithoutRetry:vector(packetBytes) ETV
attr interpolationmode none
attr source ieee80211NotRetry(packetReceivedFromPeer)
attr title "packets received: without retry, vector(packetBytes)"
vector 56 Scenario.rsu2.wlan[0].mac packetSentToUpper:vector(packetBytes) ETV
attr interpolationmode none
attr title "packets sent to upper layer, vector(packetBytes)"
vector 57 Scenario.rsu2.udp packetReceived:vector(packetBytes) ETV
attr interpolationmode none
attr source packetReceived
attr title "packets received, vector(packetBytes)"
vector 58 Scenario.rsu2.udp passedUpPk:vector(count) ETV
attr interpolationmode none
attr source packetSentToUpper
attr title "packets passed up, vector(count)"
vector 59 Scenario.rsu2.app[0] packetReceived:vector(packetBytes) ETV
attr interpolationmode none
attr source packetReceived
attr title "packets received, vector(packetBytes)"
vector 60 Scenario.rsu1.wlan[0].mac packetReceivedFromLower:vector(packetBytes) ETV
attr interpolationmode none
attr title "packets received from lower layer, vector(packetBytes)"
vector 61 Scenario.rsu1.wlan[0].mac.dcf packetReceivedFromPeer:vector(packetBytes) ETV
attr interpolationmode none
attr title "packets received, vector(packetBytes)"
vector 62 Scenario.rsu1.wlan[0].mac.dcf packetReceivedFromPeerMulticast:vector(packetBytes) ETV
attr interpolationmode none
attr source ieee80211Multicast(packetReceivedFromPeer)
attr title "packets received: multicast, vector(packetBytes)"
vector 63 Scenario.rsu1.wlan[0].mac.dcf packetReceivedFromPeerWithoutRetry:vector(packetBytes) ETV
attr interpolationmode none
attr source ieee80211NotRetry(packetReceivedFromPeer)
attr title "packets received: without retry, vector(packetBytes)"
vector 64 Scenario.rsu1.wlan[0].mac packetSentToUpper:vector(packetBytes) ETV
attr interpolationmode none
attr title "packets sent to upper layer, vector(packetBytes)"
vector 65 Scenario.rsu1.udp packetReceived:vector(packetBytes) ETV
attr interpolationmode none
attr source packetReceived
attr title "packets received, vector(packetBytes)"
vector 66 Scenario.rsu1.udp passedUpPk:vector(count) ETV
attr interpolationmode none
attr source packetSentToUpper
attr title "packets passed up, vector(count)"
vector 67 Scenario.rsu1.app[0] packetReceived:vector(packetBytes) ETV
attr interpolationmode none
attr source packetReceived
attr title "packets received, vector(packetBytes)"
vector 68 Scenario.node[4].wlan[0].radio radioMode:vector ETV
attr interpolationmode sample-hold
attr source radioModeChanged
attr title "Radio mode, vector"
vector 69 Scenario.node[4].wlan[0].radio radioChannel:vector ETV
attr interpolationmode sample-hold
attr source radioChannelChanged
attr title "Radio channel, vector"
vector 70 Scenario.node[4].wlan[0].radio receptionState:vector ETV
attr interpolationmode sample-hold
attr source receptionStateChanged
attr title "Radio reception state, vector"
vector 71 Scenario.node[4].wlan[0].mac.dcf.recoveryProcedure contentionWindowChanged:vector ETV
attr interpolationmode sample-hold
attr title "contention window, vector"
vector 72 Scenario.node[5].wlan[0].radio radioMode:vector ETV
attr interpolationmode sample-hold
attr source radioModeChanged
attr title "Radio mode, vector"
vector 73 Scenario.node[5].wlan[0].radio radioChannel:vector ETV
attr interpolationmode sample-hold
attr source radioChannelChanged
attr title "Radio channel, vector"
vector 74 Scenario.node[5].wlan[0].radio receptionState:vector ETV
attr interpolationmode sample-hold
attr source receptionStateChanged
attr title "Radio reception state, vector"
vector 75 Scenario.node[5].wlan[0].mac.dcf.recoveryProcedure contentionWindowChanged:vector ETV
attr interpolationmode sample-hold
attr title "contention window, vector"
vector 76 Scenario.node[6].wlan[0].radio radioMode:vector ETV
attr interpolationmode sample-hold
attr source radioModeChanged
attr title "Radio mode, vector"
vector 77 Scenario.node[6].wlan[0].radio radioChannel:vector ETV
attr interpolationmode sample-hold
attr source radioChannelChanged
attr title "Radio channel, vector"
vector 78 Scenario.node[6].wlan[0].radio receptionState:vector ETV
attr interpolationmode sample-hold
attr source receptionStateChanged
attr title "Radio reception state, vector"
vector 79 Scenario.node[6].wlan[0].mac.dcf.recoveryProcedure contentionWindowChanged:vector ETV
attr interpolationmode sample-hold
attr title "contention window, vector"
vector 80 Scenario.node[2].app[0] throughput:vector ETV
attr source throughput(packetReceived)
attr title "throughput, vector"
attr unit bps
45	754	71.000152351245	158
49	754	71.000152351245	130
48	754	71.000152351245	158
47	754	71.000152351245	158
46	754	71.000152351245	158
19	66	5.1	15
18	66	5.1	1
18	746	71.000000351245	3
18	753	71.000152351245	1
16	66	5.1	0
16	66	5.1	0
16	66	5.1	2
17	66	5.1	3
50	757	71.000152351245	108
51	757	71.000152351245	1
80	1256	0.1	0
80	1256	0.2	0
80	1256	0.3	0
80	1256	0.4	0
80	1256	0.5	0
80	1256	0.6	0
80	1256	0.7	0
80	1256	0.8	0
80	1256	0.9	0
80	1256	1	0
80	1256	1.1	0
80	1256	1.2	0
80	1256	1.3	0
80	1256	1.4	0
80	1256	1.5	0
80	1256	1.6	0
80	1256	1.7	0
80	1256	1.8	0
80	1256	1.9	0
80	1256	2	0
80	1256	2.1	0
80	1256	2.2	0
80	1256	2.3	0
80	1256	2.4	0
80	1256	2.5	0
80	1256	2.6	0
80	1256	2.7	0
80	1256	2.8	0
80	1256	2.9	0
80	1256	3	0
80	1256	3.1	0
80	1256	3.2	0
80	1256	3.3	0
80	1256	3.4	0
80	1256	3.5	0
80	1256	3.6	0
80	1256	3.7	0
80	1256	3.8	0
80	1256	3.9	0
80	1256	4	0
80	1256	4.1	0
80	1256	4.2	0
80	1256	4.3	0
80	1256	4.4	0
80	1256	4.5	0
80	1256	4.6	0
80	1256	4.7	0
80	1256	4.8	0
80	1256	4.9	0
80	1256	5	0
80	1256	5.1	0
80	1256	5.2	0
80	1256	5.3	0
80	1256	5.4	0
80	1256	5.5	0
80	1256	5.6	0
80	1256	5.7	0
80	1256	5.8	0
80	1256	5.9	0
80	1256	6	0
80	1256	6.1	0
80	1256	6.2	0
80	1256	6.3	0
80	1256	6.4	0
80	1256	6.5	0
80	1256	6.6	0
80	1256	6.7	0
80	1256	6.8	0
80	1256	6.9	0
80	1256	7	0
80	1256	7.1	0
80	1256	7.2	0
80	1256	7.3	0
80	1256	7.4	0
80	1256	7.5	0
80	1256	7.6	0
80	1256	7.7	0
80	1256	7.8	0
80	1256	7.9	0
80	1256	8	0
80	1256	8.1	0
80	1256	8.2	0
80	1256	8.3	0
80	1256	8.4	0
80	1256	8.5	0
80	1256	8.6	0
80	1256	8.7	0
80	1256	8.8	0
80	1256	8.9	0
80	1256	9	0
80	1256	9.1	0
80	1256	9.2	0
80	1256	9.3	0
80	1256	9.4	0
80	1256	9.5	0
80	1256	9.6	0
80	1256	9.7	0
80	1256	9.8	0
80	1256	9.9	0
80	1256	10	0
80	1256	10.1	0
80	1256	10.2	0
80	1256	10.3	0
80	1256	10.4	0
80	1256	10.5	0
80	1256	10.6	0
80	1256	10.7	0
80	1256	10.8	0
80	1256	10.9	0
80	1256	11	0
80	1256	11.1	0
80	1256	11.2	0
80	1256	11.3	0
80	1256	11.4	0
80	1256	11.5	0
80	1256	11.6	0
80	1256	11.7	0
80	1256	11.8	0
80	1256	11.9	0
80	1256	12	0
80	1256	12.1	0
80	1256	12.2	0
80	1256	12.3	0
80	1256	12.4	0
80	1256	12.5	0
80	1256	12.6	0
80	1256	12.7	0
80	1256	12.8	0
80	1256	12.9	0
80	1256	13	0
80	1256	13.1	0
80	1256	13.2	0
80	1256	13.3	0
80	1256	13.4	0
80	1256	13.5	0
80	1256	13.6	0
80	1256	13.7	0
80	1256	13.8	0
80	1256	13.9	0
80	1256	14	0
80	1256	14.1	0
80	1256	14.2	0
80	1256	14.3	0
80	1256	14.4	0
80	1256	14.5	0
80	1256	14.6	0
80	1256	14.7	0
80	1256	14.8	0
80	1256	14.9	0
80	1256	15	0
80	1256	15.1	0
80	1256	15.2	0
80	1256	15.3	0
80	1256	15.4	0
80	1256	15.5	0
80	1256	15.6	0
80	1256	15.7	0
80	1256	15.8	0
80	1256	15.9	0
80	1256	16	0
80	1256	16.1	0
80	1256	16.2	0
80	1256	16.3	0
80	1256	16.4	0
80	1256	16.5	0
80	1256	16.6	0
80	1256	16.7	0
80	1256	16.8	0
80	1256	16.9	0
80	1256	17	0
80	1256	17.1	0
80	1256	17.2	0
80	1256	17.3	0
80	1256	17.4	0
80	1256	17.5	0
80	1256	17.6	0
80	1256	17.7	0
80	1256	17.8	0
80	1256	17.9	0
80	1256	18	0
80	1256	18.1	0
80	1256	18.2	0
80	1256	18.3	0
80	1256	18.4	0
80	1256	18.5	0
80	1256	18.6	0
80	1256	18.7	0
80	1256	18.8	0
80	1256	18.9	0
80	1256	19	0
80	1256	19.1	0
80	1256	19.2	0
80	1256	19.3	0
80	1256	19.4	0
80	1256	19.5	0
80	1256	19.6	0
80	1256	19.7	0
80	1256	19.8	0
80	1256	19.9	0
80	1256	20	0
80	1256	20.1	0
80	1256	20.2	0
80	1256	20.3	0
80	1256	20.4	0
80	1256	20.5	0
80	1256	20.6	0
80	1256	20.7	0
80	1256	20.8	0
80	1256	20.9	0
80	1256	21	0
80	1256	21.1	0
80	1256	21.2	0
80	1256	21.3	0
80	1256	21.4	0
80	1256	21.5	0
80	1256	21.6	0
80	1256	21.7	0
80	1256	21.8	0
80	1256	21.9	0
80	1256	22	0
80	1256	22.1	0
80	1256	22.2	0
80	1256	22.3	0
80	1256	22.4	0
80	1256	22.5	0
80	1256	22.6	0
80	1256	22.7	0
80	1256	22.8	0
80	1256	22.9	0
80	1256	23	0
80	1256	23.1	0
80	1256	23.2	0
80	1256	23.3	0
80	1256	23.4	0
80	1256	23.5	0
80	1256	23.6	0
80	1256	23.7	0
80	1256	23.8	0
80	1256	23.9	0
80	1256	24	0
80	1256	24.1	0
80	1256	24.2	0
80	1256	24.3	0
80	1256	24.4	0
80	1256	24.5	0
80	1256	24.6	0
80	1256	24.7	0
80	1256	24.8	0
80	1256	24.9	0
80	1256	25	0
80	1256	25.1	0
80	1256	25.2	0
80	1256	25.3	0
80	1256	25.4	0
80	1256	25.5	0
80	1256	25.6	0
80	1256	25.7	0
80	1256	25.8	0
80	1256	25.9	0
80	1256	26	0
80	1256	26.1	0
80	1256	26.2	0
80	1256	26.3	0
80	1256	26.4	0
80	1256	26.5	0
80	1256	26.6	0
80	1256	26.7	0
80	1256	26.8	0
80	1256	26.9	0
80	1256	27	0
80	1256	27.1	0
80	1256	27.2	0
80	1256	27.3	0
80	1256	27.4	0
80	1256	27.5	0
80	1256	27.6	0
80	1256	27.7	0
80	1256	27.8	0
80	1256	27.9	0
80	1256	28	0
80	1256	28.1	0
80	1256	28.2	0
80	1256	28.3	0
80	1256	28.4	0
80	1256	28.5	0
80	1256	28.6	0
80	1256	28.7	0
80	1256	28.8	0
80	1256	28.9	0
80	1256	29	0
80	1256	29.1	0
80	1256	29.2	0
80	1256	29.3	0
80	1256	29.4	0
80	1256	29.5	0
80	1256	29.6	0
80	1256	29.7	0
80	1256	29.8	0
80	1256	29.9	0
80	1256	30	0
80	1256	30.1	0
80	1256	30.2	0
80	1256	30.3	0
80	1256	30.4	0
80	1256	30.5	0
80	1256	30.6	0
80	1256	30.7	0
80	1256	30.8	0
80	1256	30.9	0
80	1256	31	0
80	1256	31.1	0
80	1256	31.2	0
80	1256	31.3	0
80	1256	31.4	0
80	1256	31.5	0
80	1256	31.6	0
80	1256	31.7	0
80	1256	31.8	0
80	1256	31.9	0
80	1256	32	0
80	1256	32.1	0
80	1256	32.2	0
80	1256	32.3	0
80	1256	32.4	0
80	1256	32.5	0
80	1256	32.6	0
80	1256	32.7	0
80	1256	32.8	0
80	1256	32.9	0
80	1256	33	0
80	1256	33.1	0
80	1256	33.2	0
80	1256	33.3	0
80	1256	33.4	0
80	1256	33.5	0
80	1256	33.6	0
80	1256	33.7	0
80	1256	33.8	0
80	1256	33.9	0
80	1256	34	0
80	1256	34.1	0
80	1256	34.2	0
80	1256	34.3	0
80	1256	34.4	0
80	1256	34.5	0
80	1256	34.6	0
80	1256	34.7	0
80	1256	34.8	0
80	1256	34.9	0
80	1256	35	0
80	1256	35.1	0
80	1256	35.2	0
80	1256	35.3	0
80	1256	35.4	0
80	1256	35.5	0
80	1256	35.6	0
80	1256	35.7	0
80	1256	35.8	0
80	1256	35.9	0
80	1256	36	0
80	1256	36.1	0
80	1256	36.2	0
80	1256	36.3	0
80	1256	36.4	0
80	1256	36.5	0
80	1256	36.6	0
80	1256	36.7	0
80	1256	36.8	0
80	1256	36.9	0
80	1256	37	0
80	1256	37.1	0
80	1256	37.2	0
80	1256	37.3	0
80	1256	37.4	0
80	1256	37.5	0
80	1256	37.6	0
80	1256	37.7	0
80	1256	37.8	0
80	1256	37.9	0
80	1256	38	0
80	1256	38.1	0
80	1256	38.2	0
80	1256	38.3	0
80	1256	38.4	0
80	1256	38.5	0
80	1256	38.6	0
80	1256	38.7	0
80	1256	38.8	0
80	1256	38.9	0
80	1256	39	0
80	1256	39.1	0
80	1256	39.2	0
80	1256	39.3	0
80	1256	39.4	0
80	1256	39.5	0
80	1256	39.6	0
80	1256	39.7	0
80	1256	39.8	0
80	1256	39.9	0
80	1256	40	0
80	1256	40.1	0
80	1256	40.2	0
80	1256	40.3	0
80	1256	40.4	0
80	1256	40.5	0
80	1256	40.6	0
80	1256	40.7	0
80	1256	40.8	0
80	1256	40.9	0
80	1256	41	0
80	1256	41.1	0
80	1256	41.2	0
80	1256	41.3	0
80	1256	41.4	0
80	1256	41.5	0
80	1256	41.6	0
80	1256	41.7	0
80	1256	41.8	0
80	1256	41.9	0
80	1256	42	0
80	1256	42.1	0
80	1256	42.2	0
80	1256	42.3	0
80	1256	42.4	0
80	1256	42.5	0
80	1256	42.6	0
80	1256	42.7	0
80	1256	42.8	0
80	1256	42.9	0
80	1256	43	0
80	1256	43.1	0
80	1256	43.2	0
80	1256	43.3	0
80	1256	43.4	0
80	1256	43.5	0
80	1256	43.6	0
80	1256	43.7	0
80	1256	43.8	0
80	1256	43.9	0
80	1256	44	0
80	1256	44.1	0
80	1256	44.2	0
80	1256	44.3	0
80	1256	44.4	0
80	1256	44.5	0
80	1256	44.6	0
80	1256	44.7	0
80	1256	44.8	0
80	1256	44.9	0
80	1256	45	0
80	1256	45.1	0
80	1256	45.2	0
80	1256	45.3	0
80	1256	45.4	0
80	1256	45.5	0
80	1256	45.6	0
80	1256	45.7	0
80	1256	45.8	0
80	1256	45.9	0
80	1256	46	0
80	1256	46.1	0
80	1256	46.2	0
80	1256	46.3	0
80	1256	46.4	0
80	1256	46.5	0
80	1256	46.6	0
80	1256	46.7	0
80	1256	46.8	0
80	1256	46.9	0
80	1256	47	0
80	1256	47.1	0
80	1256	47.2	0
80	1256	47.3	0
80	1256	47.4	0
80	1256	47.5	0
80	1256	47.6	0
80	1256	47.7	0
80	1256	47.8	0
80	1256	47.9	0
80	1256	48	0
80	1256	48.1	0
80	1256	48.2	0
80	1256	48.3	0
80	1256	48.4	0
80	1256	48.5	0
80	1256	48.6	0
80	1256	48.7	0
80	1256	48.8	0
80	1256	48.9	0
80	1256	49	0
80	1256	49.1	0
80	1256	49.2	0
80	1256	49.3	0
80	1256	49.4	0
80	1256	49.5	0
80	1256	49.6	0
80	1256	49.7	0
80	1256	49.8	0
80	1256	49.9	0
80	1256	50	0
80	1256	50.1	0
80	1256	50.2	0
80	1256	50.3	0
80	1256	50.4	0
80	1256	50.5	0
80	1256	50.6	0
80	1256	50.7	0
80	1256	50.8	0
80	1256	50.9	0
80	1256	51	0
80	1256	51.1	0
80	1256	51.2	0
80	1256	51.3	0
80	1256	51.4	0
80	1256	51.5	0
80	1256	51.6	0
80	1256	51.7	0
80	1256	51.8	0
80	1256	51.9	0
80	1256	52	0
80	1256	52.1	0
80	1256	52.2	0
80	1256	52.3	0
80	1256	52.4	0
80	1256	52.5	0
80	1256	52.6	0
80	1256	52.7	0
80	1256	52.8	0
80	1256	52.9	0
80	1256	53	0
80	1256	53.1	0
80	1256	53.2	0
80	1256	53.3	0
80	1256	53.4	0
80	1256	53.5	0
80	1256	53.6	0
80	1256	53.7	0
80	1256	53.8	0
80	1256	53.9	0
80	1256	54	0
80	1256	54.1	0
80	1256	54.2	0
80	1256	54.3	0
80	1256	54.4	0
80	1256	54.5	0
80	1256	54.6	0
80	1256	54.7	0
80	1256	54.8	0
80	1256	54.9	0
80	1256	55	0
80	1256	55.1	0
80	1256	55.2	0
80	1256	55.3	0
80	1256	55.4	0
80	1256	55.5	0
80	1256	55.6	0
80	1256	55.7	0
80	1256	55.8	0
80	1256	55.9	0
80	1256	56	0
80	1256	56.1	0
80	1256	56.2	0
80	1256	56.3	0
80	1256	56.4	0
80	1256	56.5	0
80	1256	56.6	0
80	1256	56.7	0
80	1256	56.8	0
80	1256	56.9	0
80	1256	57	0
80	1256	57.1	0
80	1256	57.2	0
80	1256	57.3	0
80	1256	57.4	0
80	1256	57.5	0
80	1256	57.6	0
80	1256	57.7	0
80	1256	57.8	0
80	1256	57.9	0
80	1256	58	0
80	1256	58.1	0
80	1256	58.2	0
80	1256	58.3	0
80	1256	58.4	0
80	1256	58.5	0
80	1256	58.6	0
80	1256	58.7	0
80	1256	58.8	0
80	1256	58.9	0
80	1256	59	0
80	1256	59.1	0
80	1256	59.2	0
80	1256	59.3	0
80	1256	59.4	0
80	1256	59.5	0
80	1256	59.6	0
80	1256	59.7	0
80	1256	59.8	0
80	1256	59.9	0
80	1256	60	0
80	1256	60.1	0
80	1256	60.2	0
80	1256	60.3	0
80	1256	60.4	0
80	1256	60.5	0
80	1256	60.6	0
80	1256	60.7	0
80	1256	60.8	0
80	1256	60.9	0
80	1256	61	0
80	1256	61.1	0
80	1256	61.2	0
80	1256	61.3	0
80	1256	61.4	0
80	1256	61.5	0
80	1256	61.6	0
80	1256	61.7	0
80	1256	61.8	0
80	1256	61.9	0
80	1256	62	0
80	1256	62.1	0
80	1256	62.2	0
80	1256	62.3	0
80	1256	62.4	0
80	1256	62.5	0
80	1256	62.6	0
80	1256	62.7	0
80	1256	62.8	0
80	1256	62.9	0
80	1256	63	0
80	1256	63.1	0
80	1256	63.2	0
80	1256	63.3	0
80	1256	63.4	0
80	1256	63.5	0
80	1256	63.6	0
80	1256	63.7	0
80	1256	63.8	0
80	1256	63.9	0
80	1256	64	0
80	1256	64.1	0
80	1256	64.2	0
80	1256	64.3	0
80	1256	64.4	0
80	1256	64.5	0
80	1256	64.6	0
80	1256	64.7	0
80	1256	64.8	0
80	1256	64.9	0
80	1256	65	0
80	1256	65.1	0
80	1256	65.2	0
80	1256	65.3	0
80	1256	65.4	0
80	1256	65.5	0
80	1256	65.6	0
80	1256	65.7	0
80	1256	65.8	0
80	1256	65.9	0
80	1256	66	0
80	1256	66.1	0
80	1256	66.2	0
80	1256	66.3	0
80	1256	66.4	0
80	1256	66.5	0
80	1256	66.6	0
80	1256	66.7	0
80	1256	66.8	0
80	1256	66.9	0
80	1256	67	0
80	1256	67.1	0
80	1256	67.2	0
80	1256	67.3	0
80	1256	67.4	0
80	1256	67.5	0
80	1256	67.6	0
80	1256	67.7	0
80	1256	67.8	0
80	1256	67.9	0
80	1256	68	0
80	1256	68.1	0
80	1256	68.2	0
80	1256	68.3	0
80	1256	68.4	0
80	1256	68.5	0
80	1256	68.6	0
80	1256	68.7	0
80	1256	68.8	0
80	1256	68.9	0
80	1256	69	0
80	1256	69.1	0
80	1256	69.2	0
80	1256	69.3	0
80	1256	69.4	0
80	1256	69.5	0
80	1256	69.6	0
80	1256	69.7	0
80	1256	69.8	0
80	1256	69.9	0
80	1256	70	0
80	1256	70.1	0
80	1256	70.2	0
80	1256	70.3	0
80	1256	70.4	0
80	1256	70.5	0
80	1256	70.6	0
80	1256	70.7	0
80	1256	70.8	0
80	1256	70.9	0
80	1256	71	0
80	1256	71.1	0
80	1256	71.2	0
80	1256	71.3	0
80	1256	71.4	0
80	1256	71.5	0
80	1256	71.6	0
80	1256	71.7	0
80	1256	71.8	0
80	1256	71.9	0
80	1256	72	0
80	1256	72.1	0
80	1256	72.2	0
80	1256	72.3	0
80	1256	72.4	0
80	1256	72.5	0
80	1256	72.6	0
80	1256	72.7	0
80	1256	72.8	0
80	1256	72.9	0
80	1256	73	0
80	1256	73.1	0
80	1256	73.2	0
80	1256	73.3	0
80	1256	73.4	0
80	1256	73.5	0
80	1256	73.6	0
80	1256	73.7	0
80	1256	73.8	0
80	1256	73.9	0
80	1256	74	0
80	1256	74.1	0
80	1256	74.2	0
80	1256	74.3	0
80	1256	74.4	0
80	1256	74.5	0
80	1256	74.6	0
80	1256	74.7	0
80	1256	74.8	0
80	1256	74.9	0
80	1256	75	0
80	1256	75.1	0
80	1256	75.2	0
80	1256	75.3	0
80	1256	75.4	0
80	1256	75.5	0
80	1256	75.6	0
80	1256	75.7	0
80	1256	75.8	0
80	1256	75.9	0
80	1256	76	0
80	1256	76.1	0
80	1256	76.2	0
80	1256	76.3	0
80	1256	76.4	0
80	1256	76.5	0
80	1256	76.6	0
80	1256	76.7	0
80	1256	76.8	0
80	1256	76.9	0
80	1256	77	0
80	1256	77.1	0
80	1256	77.2	0
80	1256	77.3	0
80	1256	77.4	0
80	1256	77.5	0
80	1256	77.6	0
80	1256	77.7	0
80	1256	77.8	0
80	1256	77.9	0
80	1256	78	0
80	1256	78.1	0
80	1256	78.2	0
80	1256	78.3	0
80	1256	78.4	0
80	1256	78.5	0
80	1256	78.6	0
80	1256	78.7	0
80	1256	78.8	0
80	1256	78.9	0
80	1256	79	0
80	1256	79.1	0
80	1256	79.2	0
80	1256	79.3	0
80	1256	79.4	0
80	1256	79.5	0
80	1256	79.6	0
80	1256	79.7	0
80	1256	79.8	0
80	1256	79.9	0
80	1256	80	0
80	1256	80.1	0
80	1256	80.2	0
80	1256	80.3	0
80	1256	80.4	0
80	1256	80.5	0
80	1256	80.6	0
80	1256	80.7	0
80	1256	80.8	0
80	1256	80.9	0
80	1256	81	0
80	1256	81.1	0
80	1256	81.2	0
80	1256	81.3	0
80	1256	81.4	0
80	1256	81.5	0
80	1256	81.6	0
80	1256	81.7	0
80	1256	81.8	0
80	1256	81.9	0
80	1256	82	0
80	1256	82.1	0
80	1256	82.2	0
80	1256	82.3	0
80	1256	82.4	0
80	1256	82.5	0
80	1256	82.6	0
80	1256	82.7	0
80	1256	82.8	0
80	1256	82.9	0
80	1256	83	0
80	1256	83.1	0
80	1256	83.2	0
80	1256	83.3	0
80	1256	83.4	0
80	1256	83.5	0
80	1256	83.6	0
80	1256	83.7	0
80	1256	83.8	0
80	1256	83.9	0
80	1256	84	0
80	1256	84.1	0
80	1256	84.2	0
80	1256	84.3	0
80	1256	84.4	0
80	1256	84.5	0
80	1256	84.6	0
80	1256	84.7	0
80	1256	84.8	0
80	1256	84.9	0
80	1256	85	0
80	1256	85.1	0
80	1256	85.2	0
80	1256	85.3	0
80	1256	85.4	0
80	1256	85.5	0
80	1256	85.6	0
80	1256	85.7	0
80	1256	85.8	0
80	1256	85.9	0
80	1256	86	0
80	1256	86.1	0
80	1256	86.2	0
80	1256	86.3	0
80	1256	86.4	0
80	1256	86.5	0
80	1256	86.6	0
80	1256	86.7	0
80	1256	86.8	0
80	1256	86.9	0
80	1256	87	0
80	1256	87.1	0
80	1256	87.2	0
80	1256	87.3	0
80	1256	87.4	0
80	1256	87.5	0
80	1256	87.6	0
80	1256	87.7	0
80	1256	87.8	0
80	1256	87.9	0
80	1256	88	0
80	1256	88.1	0
80	1256	88.2	0
80	1256	88.3	0
80	1256	88.4	0
80	1256	88.5	0
80	1256	88.6	0
80	1256	88.7	0
80	1256	88.8	0
80	1256	88.9	0
80	1256	89	0
80	1256	89.1	0
80	1256	89.2	0
80	1256	89.3	0
80	1256	89.4	0
80	1256	89.5	0
80	1256	89.6	0
80	1256	89.7	0
80	1256	89.8	0
80	1256	89.9	0
80	1256	90	0
80	1256	90.1	0
80	1256	90.2	0
80	1256	90.3	0
80	1256	90.4	0
80	1256	90.5	0
80	1256	90.6	0
80	1256	90.7	0
80	1256	90.8	0
80	1256	90.9	0
80	1256	91	0
80	1256	91.1	0
80	1256	91.2	0
80	1256	91.3	0
80	1256	91.4	0
80	1256	91.5	0
80	1256	91.6	0
80	1256	91.7	0
80	1256	91.8	0
80	1256	91.9	0
80	1256	92	0
80	1256	92.1	0
80	1256	92.2	0
80	1256	92.3	0
80	1256	92.4	0
80	1256	92.5	0
80	1256	92.6	0
80	1256	92.7	0
80	1256	92.8	0
80	1256	92.9	0
80	1256	93	0
80	1256	93.1	0
80	1256	93.2	0
80	1256	93.3	0
80	1256	93.4	0
80	1256	93.5	0
80	1256	93.6	0
80	1256	93.7	0
80	1256	93.8	0
80	1256	93.9	0
80	1256	94	0
80	1256	94.1	0
80	1256	94.2	0
80	1256	94.3	0
80	1256	94.4	0
80	1256	94.5	0
80	1256	94.6	0
80	1256	94.7	0
80	1256	94.8	0
80	1256	94.9	0
80	1256	95	0
80	1256	95.1	0
80	1256	95.2	0
80	1256	95.3	0
80	1256	95.4	0
80	1256	95.5	0
80	1256	95.6	0
80	1256	95.7	0
80	1256	95.8	0
80	1256	95.9	0
80	1256	96	0
80	1256	96.1	0
80	1256	96.2	0
80	1256	96.3	0
80	1256	96.4	0
80	1256	96.5	0
80	1256	96.6	0
80	1256	96.7	0
80	1256	96.8	0
80	1256	96.9	0
80	1256	97	0
80	1256	97.1	0
80	1256	97.2	0
80	1256	97.3	0
80	1256	97.4	0
80	1256	97.5	0
80	1256	97.6	0
80	1256	97.7	0
80	1256	97.8	0
80	1256	97.9	0
80	1256	98	0
80	1256	98.1	0
80	1256	98.2	0
80	1256	98.3	0
80	1256	98.4	0
80	1256	98.5	0
80	1256	98.6	0
80	1256	98.7	0
80	1256	98.8	0
80	1256	98.9	0
80	1256	99	0
80	1256	99.1	0
80	1256	99.2	0
80	1256	99.3	0
80	1256	99.4	0
80	1256	99.5	0
80	1256	99.6	0
80	1256	99.7	0
80	1256	99.8	0
80	1256	99.9	0
80	1256	100	0
80	1256	100.1	0
80	1256	100.2	0
80	1256	100.3	0
80	1256	100.4	0
80	1256	100.5	0
80	1256	100.6	0
80	1256	100.7	0
80	1256	100.8	0
80	1256	100.9	0
80	1256	101	0
80	1256	101.1	0
80	1256	101.2	0
80	1256	101.3	0
80	1256	101.4	0
80	1256	101.5	0
80	1256	101.6	0
80	1256	101.7	0
80	1256	101.8	0
80	1256	101.9	0
80	1256	102	0
80	1256	102.1	0
80	1256	102.2	0
80	1256	102.3	0
80	1256	102.4	0
80	1256	102.5	0
80	1256	102.6	0
80	1256	102.7	0
80	1256	102.8	0
80	1256	102.9	0
80	1256	103	0
80	1256	103.1	0
80	1256	103.2	0
80	1256	103.3	0
80	1256	103.4	0
80	1256	103.5	0
80	1256	103.6	0
80	1256	103.7	0
80	1256	103.8	0
80	1256	103.9	0
80	1256	104	0
80	1256	104.1	0
80	1256	104.2	0
80	1256	104.3	0
80	1256	104.4	0
80	1256	104.5	0
80	1256	104.6	0
80	1256	104.7	0
80	1256	104.8	0
80	1256	104.9	0
80	1256	105	0
80	1256	105.1	0
80	1256	105.2	0
80	1256	105.3	0
80	1256	105.4	0
80	1256	105.5	0
80	1256	105.6	0
80	1256	105.7	0
80	1256	105.8	0
80	1256	105.9	0
80	1256	106	0
80	1256	106.1	0
80	1256	106.2	0
80	1256	106.3	0
80	1256	106.4	0
80	1256	106.5	0
80	1256	106.6	0
80	1256	106.7	0
80	1256	106.8	0
80	1256	106.9	0
80	1256	107	0
80	1256	107.1	0
80	1256	107.2	0
80	1256	107.3	0
80	1256	107.4	0
80	1256	107.5	0
80	1256	107.6	0
80	1256	107.7	0
80	1256	107.8	0
80	1256	107.9	0
80	1256	108	0
80	1256	108.1	0
80	1256	108.2	0
80	1256	108.3	0
80	1256	108.4	0
80	1256	108.5	0
80	1256	108.6	0
80	1256	108.7	0
80	1256	108.8	0
80	1256	108.9	0
80	1256	109	0
80	1256	109.1	0
80	1256	109.2	0
80	1256	109.3	0
80	1256	109.4	0
80	1256	109.5	0
80	1256	109.6	0
80	1256	109.7	0
80	1256	109.8	0
80	1256	109.9	0
80	1256	110	0
80	1256	110.1	0
80	1256	110.2	0
80	1256	110.3	0
80	1256	110.4	0
80	1256	110.5	0
80	1256	110.6	0
80	1256	110.7	0
80	1256	110.8	0
80	1256	110.9	0
80	1256	111	0
80	1256	111.1	0
80	1256	111.2	0
80	1256	111.3	0
80	1256	111.4	0
80	1256	111.5	0
80	1256	111.6	0
80	1256	111.7	0
80	1256	111.8	0
80	1256	111.9	0
80	1256	112	0
80	1256	112.1	0
80	1256	112.2	0
80	1256	112.3	0
80	1256	112.4	0
80	1256	112.5	0
80	1256	112.6	0
80	1256	112.7	0
80	1256	112.8	0
80	1256	112.9	0
80	1256	113	0
80	1256	113.1	0
80	1256	113.2	0
80	1256	113.3	0
80	1256	113.4	0
80	1256	113.5	0
80	1256	113.6	0
80	1256	113.7	0
80	1256	113.8	0
80	1256	113.9	0
80	1256	114	0
80	1256	114.1	0
80	1256	114.2	0
80	1256	114.3	0
80	1256	114.4	0
80	1256	114.5	0
80	1256	114.6	0
80	1256	114.7	0
80	1256	114.8	0
80	1256	114.9	0
80	1256	115	0
80	1256	115.1	0
80	1256	115.2	0
80	1256	115.3	0
80	1256	115.4	0
80	1256	115.5	0
80	1256	115.6	0
80	1256	115.7	0
80	1256	115.8	0
80	1256	115.9	0
80	1256	116	0
80	1256	116.1	0
80	1256	116.2	0
80	1256	116.3	0
80	1256	116.4	0
80	1256	116.5	0
80	1256	116.6	0
80	1256	116.7	0
80	1256	116.8	0
80	1256	116.9	0
80	1256	117	0
80	1256	117.1	0
80	1256	117.2	0
80	1256	117.3	0
80	1256	117.4	0
80	1256	117.5	0
80	1256	117.6	0
80	1256	117.7	0
80	1256	117.8	0
80	1256	117.9	0
80	1256	118	0
80	1256	118.1	0
vector 81 Scenario.node[0].app[0] throughput:vector ETV
attr source throughput(packetReceived)
attr title "throughput, vector"
attr unit bps
25	737	71	128
26	737	71	128
38	743	71	158
27	740	71	130
43	751	71.000152	158
42	751	71.000152	158
41	751	71.000152	158
39	743	71	1
39	751	71.000152	0
37	743	71	12000000
35	743	71	0
34	743	71	158
28	740	71	158
29	740	71	1
29	743	71	0
44	751	71.000152	0.000152
36	743	71	1
36	751	71.000152	0
31	740	71	1
31	742	71	0
30	740	71	10
11	18	1.1	15
40	744	71	1
40	745	71	2
40	751	71.000152	1
40	752	71.000152	0
10	18	1.1	1
10	744	71	0
10	752	71.000152	1
8	18	1.1	0
8	18	1.1	0
8	18	1.1	2
8	744	71	3
8	752	71.000152	2
9	18	1.1	3
32	741	71	108
24	735	71	108
33	741	71	1
81	1626	0.1	0
81	1626	0.2	0
81	1626	0.3	0
81	1626	0.4	0
81	1626	0.5	0
81	1626	0.6	0
81	1626	0.7	0
81	1626	0.8	0
81	1626	0.9	0
81	1626	1	0
81	1626	1.1	0
81	1626	1.2	0
81	1626	1.3	0
81	1626	1.4	0
81	1626	1.5	0
81	1626	1.6	0
81	1626	1.7	0
81	1626	1.8	0
81	1626	1.9	0
81	1626	2	0
81	1626	2.1	0
81	1626	2.2	0
81	1626	2.3	0
81	1626	2.4	0
81	1626	2.5	0
81	1626	2.6	0
81	1626	2.7	0
81	1626	2.8	0
81	1626	2.9	0
81	1626	3	0
81	1626	3.1	0
81	1626	3.2	0
81	1626	3.3	0
81	1626	3.4	0
81	1626	3.5	0
81	1626	3.6	0
81	1626	3.7	0
81	1626	3.8	0
81	1626	3.9	0
81	1626	4	0
81	1626	4.1	0
81	1626	4.2	0
81	1626	4.3	0
81	1626	4.4	0
81	1626	4.5	0
81	1626	4.6	0
81	1626	4.7	0
81	1626	4.8	0
81	1626	4.9	0
81	1626	5	0
81	1626	5.1	0
81	1626	5.2	0
81	1626	5.3	0
81	1626	5.4	0
81	1626	5.5	0
81	1626	5.6	0
81	1626	5.7	0
81	1626	5.8	0
81	1626	5.9	0
81	1626	6	0
81	1626	6.1	0
81	1626	6.2	0
81	1626	6.3	0
81	1626	6.4	0
81	1626	6.5	0
81	1626	6.6	0
81	1626	6.7	0
81	1626	6.8	0
81	1626	6.9	0
81	1626	7	0
81	1626	7.1	0
81	1626	7.2	0
81	1626	7.3	0
81	1626	7.4	0
81	1626	7.5	0
81	1626	7.6	0
81	1626	7.7	0
81	1626	7.8	0
81	1626	7.9	0
81	1626	8	0
81	1626	8.1	0
81	1626	8.2	0
81	1626	8.3	0
81	1626	8.4	0
81	1626	8.5	0
81	1626	8.6	0
81	1626	8.7	0
81	1626	8.8	0
81	1626	8.9	0
81	1626	9	0
81	1626	9.1	0
81	1626	9.2	0
81	1626	9.3	0
81	1626	9.4	0
81	1626	9.5	0
81	1626	9.6	0
81	1626	9.7	0
81	1626	9.8	0
81	1626	9.9	0
81	1626	10	0
81	1626	10.1	0
81	1626	10.2	0
81	1626	10.3	0
81	1626	10.4	0
81	1626	10.5	0
81	1626	10.6	0
81	1626	10.7	0
81	1626	10.8	0
81	1626	10.9	0
81	1626	11	0
81	1626	11.1	0
81	1626	11.2	0
81	1626	11.3	0
81	1626	11.4	0
81	1626	11.5	0
81	1626	11.6	0
81	1626	11.7	0
81	1626	11.8	0
81	1626	11.9	0
81	1626	12	0
81	1626	12.1	0
81	1626	12.2	0
81	1626	12.3	0
81	1626	12.4	0
81	1626	12.5	0
81	1626	12.6	0
81	1626	12.7	0
81	1626	12.8	0
81	1626	12.9	0
81	1626	13	0
81	1626	13.1	0
81	1626	13.2	0
81	1626	13.3	0
81	1626	13.4	0
81	1626	13.5	0
81	1626	13.6	0
81	1626	13.7	0
81	1626	13.8	0
81	1626	13.9	0
81	1626	14	0
81	1626	14.1	0
81	1626	14.2	0
81	1626	14.3	0
81	1626	14.4	0
81	1626	14.5	0
81	1626	14.6	0
81	1626	14.7	0
81	1626	14.8	0
81	1626	14.9	0
81	1626	15	0
81	1626	15.1	0
81	1626	15.2	0
81	1626	15.3	0
81	1626	15.4	0
81	1626	15.5	0
81	1626	15.6	0
81	1626	15.7	0
81	1626	15.8	0
81	1626	15.9	0
81	1626	16	0
81	1626	16.1	0
81	1626	16.2	0
81	1626	16.3	0
81	1626	16.4	0
81	1626	16.5	0
81	1626	16.6	0
81	1626	16.7	0
81	1626	16.8	0
81	1626	16.9	0
81	1626	17	0
81	1626	17.1	0
81	1626	17.2	0
81	1626	17.3	0
81	1626	17.4	0
81	1626	17.5	0
81	1626	17.6	0
81	1626	17.7	0
81	1626	17.8	0
81	1626	17.9	0
81	1626	18	0
81	1626	18.1	0
81	1626	18.2	0
81	1626	18.3	0
81	1626	18.4	0
81	1626	18.5	0
81	1626	18.6	0
81	1626	18.7	0
81	1626	18.8	0
81	1626	18.9	0
81	1626	19	0
81	1626	19.1	0
81	1626	19.2	0
81	1626	19.3	0
81	1626	19.4	0
81	1626	19.5	0
81	1626	19.6	0
81	1626	19.7	0
81	1626	19.8	0
81	1626	19.9	0
81	1626	20	0
81	1626	20.1	0
81	1626	20.2	0
81	1626	20.3	0
81	1626	20.4	0
81	1626	20.5	0
81	1626	20.6	0
81	1626	20.7	0
81	1626	20.8	0
81	1626	20.9	0
81	1626	21	0
81	1626	21.1	0
81	1626	21.2	0
81	1626	21.3	0
81	1626	21.4	0
81	1626	21.5	0
81	1626	21.6	0
81	1626	21.7	0
81	1626	21.8	0
81	1626	21.9	0
81	1626	22	0
81	1626	22.1	0
81	1626	22.2	0
81	1626	22.3	0
81	1626	22.4	0
81	1626	22.5	0
81	1626	22.6	0
81	1626	22.7	0
81	1626	22.8	0
81	1626	22.9	0
81	1626	23	0
81	1626	23.1	0
81	1626	23.2	0
81	1626	23.3	0
81	1626	23.4	0
81	1626	23.5	0
81	1626	23.6	0
81	1626	23.7	0
81	1626	23.8	0
81	1626	23.9	0
81	1626	24	0
81	1626	24.1	0
81	1626	24.2	0
81	1626	24.3	0
81	1626	24.4	0
81	1626	24.5	0
81	1626	24.6	0
81	1626	24.7	0
81	1626	24.8	0
81	1626	24.9	0
81	1626	25	0
81	1626	25.1	0
81	1626	25.2	0
81	1626	25.3	0
81	1626	25.4	0
81	1626	25.5	0
81	1626	25.6	0
81	1626	25.7	0
81	1626	25.8	0
81	1626	25.9	0
81	1626	26	0
81	1626	26.1	0
81	1626	26.2	0
81	1626	26.3	0
81	1626	26.4	0
81	1626	26.5	0
81	1626	26.6	0
81	1626	26.7	0
81	1626	26.8	0
81	1626	26.9	0
81	1626	27	0
81	1626	27.1	0
81	1626	27.2	0
81	1626	27.3	0
81	1626	27.4	0
81	1626	27.5	0
81	1626	27.6	0
81	1626	27.7	0
81	1626	27.8	0
81	1626	27.9	0
81	1626	28	0
81	1626	28.1	0
81	1626	28.2	0
81	1626	28.3	0
81	1626	28.4	0
81	1626	28.5	0
81	1626	28.6	0
81	1626	28.7	0
81	1626	28.8	0
81	1626	28.9	0
81	1626	29	0
81	1626	29.1	0
81	1626	29.2	0
81	1626	29.3	0
81	1626	29.4	0
81	1626	29.5	0
81	1626	29.6	0
81	1626	29.7	0
81	1626	29.8	0
81	1626	29.9	0
81	1626	30	0
81	1626	30.1	0
81	1626	30.2	0
81	1626	30.3	0
81	1626	30.4	0
81	1626	30.5	0
81	1626	30.6	0
81	1626	30.7	0
81	1626	30.8	0
81	1626	30.9	0
81	1626	31	0
81	1626	31.1	0
81	1626	31.2	0
81	1626	31.3	0
81	1626	31.4	0
81	1626	31.5	0
81	1626	31.6	0
81	1626	31.7	0
81	1626	31.8	0
81	1626	31.9	0
81	1626	32	0
81	1626	32.1	0
81	1626	32.2	0
81	1626	32.3	0
81	1626	32.4	0
81	1626	32.5	0
81	1626	32.6	0
81	1626	32.7	0
81	1626	32.8	0
81	1626	32.9	0
81	1626	33	0
81	1626	33.1	0
81	1626	33.2	0
81	1626	33.3	0
81	1626	33.4	0
81	1626	33.5	0
81	1626	33.6	0
81	1626	33.7	0
81	1626	33.8	0
81	1626	33.9	0
81	1626	34	0
81	1626	34.1	0
81	1626	34.2	0
81	1626	34.3	0
81	1626	34.4	0
81	1626	34.5	0
81	1626	34.6	0
81	1626	34.7	0
81	1626	34.8	0
81	1626	34.9	0
81	1626	35	0
81	1626	35.1	0
81	1626	35.2	0
81	1626	35.3	0
81	1626	35.4	0
81	1626	35.5	0
81	1626	35.6	0
81	1626	35.7	0
81	1626	35.8	0
81	1626	35.9	0
81	1626	36	0
81	1626	36.1	0
81	1626	36.2	0
81	1626	36.3	0
81	1626	36.4	0
81	1626	36.5	0
81	1626	36.6	0
81	1626	36.7	0
81	1626	36.8	0
81	1626	36.9	0
81	1626	37	0
81	1626	37.1	0
81	1626	37.2	0
81	1626	37.3	0
81	1626	37.4	0
81	1626	37.5	0
81	1626	37.6	0
81	1626	37.7	0
81	1626	37.8	0
81	1626	37.9	0
81	1626	38	0
81	1626	38.1	0
81	1626	38.2	0
81	1626	38.3	0
81	1626	38.4	0
81	1626	38.5	0
81	1626	38.6	0
81	1626	38.7	0
81	1626	38.8	0
81	1626	38.9	0
81	1626	39	0
81	1626	39.1	0
81	1626	39.2	0
81	1626	39.3	0
81	1626	39.4	0
81	1626	39.5	0
81	1626	39.6	0
81	1626	39.7	0
81	1626	39.8	0
81	1626	39.9	0
81	1626	40	0
81	1626	40.1	0
81	1626	40.2	0
81	1626	40.3	0
81	1626	40.4	0
81	1626	40.5	0
81	1626	40.6	0
81	1626	40.7	0
81	1626	40.8	0
81	1626	40.9	0
81	1626	41	0
81	1626	41.1	0
81	1626	41.2	0
81	1626	41.3	0
81	1626	41.4	0
81	1626	41.5	0
81	1626	41.6	0
81	1626	41.7	0
81	1626	41.8	0
81	1626	41.9	0
81	1626	42	0
81	1626	42.1	0
81	1626	42.2	0
81	1626	42.3	0
81	1626	42.4	0
81	1626	42.5	0
81	1626	42.6	0
81	1626	42.7	0
81	1626	42.8	0
81	1626	42.9	0
81	1626	43	0
81	1626	43.1	0
81	1626	43.2	0
81	1626	43.3	0
81	1626	43.4	0
81	1626	43.5	0
81	1626	43.6	0
81	1626	43.7	0
81	1626	43.8	0
81	1626	43.9	0
81	1626	44	0
81	1626	44.1	0
81	1626	44.2	0
81	1626	44.3	0
81	1626	44.4	0
81	1626	44.5	0
81	1626	44.6	0
81	1626	44.7	0
81	1626	44.8	0
81	1626	44.9	0
81	1626	45	0
81	1626	45.1	0
81	1626	45.2	0
81	1626	45.3	0
81	1626	45.4	0
81	1626	45.5	0
81	1626	45.6	0
81	1626	45.7	0
81	1626	45.8	0
81	1626	45.9	0
81	1626	46	0
81	1626	46.1	0
81	1626	46.2	0
81	1626	46.3	0
81	1626	46.4	0
81	1626	46.5	0
81	1626	46.6	0
81	1626	46.7	0
81	1626	46.8	0
81	1626	46.9	0
81	1626	47	0
81	1626	47.1	0
81	1626	47.2	0
81	1626	47.3	0
81	1626	47.4	0
81	1626	47.5	0
81	1626	47.6	0
81	1626	47.7	0
81	1626	47.8	0
81	1626	47.9	0
81	1626	48	0
81	1626	48.1	0
81	1626	48.2	0
81	1626	48.3	0
81	1626	48.4	0
81	1626	48.5	0
81	1626	48.6	0
81	1626	48.7	0
81	1626	48.8	0
81	1626	48.9	0
81	1626	49	0
81	1626	49.1	0
81	1626	49.2	0
81	1626	49.3	0
81	1626	49.4	0
81	1626	49.5	0
81	1626	49.6	0
81	1626	49.7	0
81	1626	49.8	0
81	1626	49.9	0
81	1626	50	0
81	1626	50.1	0
81	1626	50.2	0
81	1626	50.3	0
81	1626	50.4	0
81	1626	50.5	0
81	1626	50.6	0
81	1626	50.7	0
81	1626	50.8	0
81	1626	50.9	0
81	1626	51	0
81	1626	51.1	0
81	1626	51.2	0
81	1626	51.3	0
81	1626	51.4	0
81	1626	51.5	0
81	1626	51.6	0
81	1626	51.7	0
81	1626	51.8	0
81	1626	51.9	0
81	1626	52	0
81	1626	52.1	0
81	1626	52.2	0
81	1626	52.3	0
81	1626	52.4	0
81	1626	52.5	0
81	1626	52.6	0
81	1626	52.7	0
81	1626	52.8	0
81	1626	52.9	0
81	1626	53	0
81	1626	53.1	0
81	1626	53.2	0
81	1626	53.3	0
81	1626	53.4	0
81	1626	53.5	0
81	1626	53.6	0
81	1626	53.7	0
81	1626	53.8	0
81	1626	53.9	0
81	1626	54	0
81	1626	54.1	0
81	1626	54.2	0
81	1626	54.3	0
81	1626	54.4	0
81	1626	54.5	0
81	1626	54.6	0
81	1626	54.7	0
81	1626	54.8	0
81	1626	54.9	0
81	1626	55	0
81	1626	55.1	0
81	1626	55.2	0
81	1626	55.3	0
81	1626	55.4	0
81	1626	55.5	0
81	1626	55.6	0
81	1626	55.7	0
81	1626	55.8	0
81	1626	55.9	0
81	1626	56	0
81	1626	56.1	0
81	1626	56.2	0
81	1626	56.3	0
81	1626	56.4	0
81	1626	56.5	0
81	1626	56.6	0
81	1626	56.7	0
81	1626	56.8	0
81	1626	56.9	0
81	1626	57	0
81	1626	57.1	0
81	1626	57.2	0
81	1626	57.3	0
81	1626	57.4	0
81	1626	57.5	0
81	1626	57.6	0
81	1626	57.7	0
81	1626	57.8	0
81	1626	57.9	0
81	1626	58	0
81	1626	58.1	0
81	1626	58.2	0
81	1626	58.3	0
81	1626	58.4	0
81	1626	58.5	0
81	1626	58.6	0
81	1626	58.7	0
81	1626	58.8	0
81	1626	58.9	0
81	1626	59	0
81	1626	59.1	0
81	1626	59.2	0
81	1626	59.3	0
81	1626	59.4	0
81	1626	59.5	0
81	1626	59.6	0
81	1626	59.7	0
81	1626	59.8	0
81	1626	59.9	0
81	1626	60	0
81	1626	60.1	0
81	1626	60.2	0
81	1626	60.3	0
81	1626	60.4	0
81	1626	60.5	0
81	1626	60.6	0
81	1626	60.7	0
81	1626	60.8	0
81	1626	60.9	0
81	1626	61	0
81	1626	61.1	0
81	1626	61.2	0
81	1626	61.3	0
81	1626	61.4	0
81	1626	61.5	0
81	1626	61.6	0
81	1626	61.7	0
81	1626	61.8	0
81	1626	61.9	0
81	1626	62	0
81	1626	62.1	0
81	1626	62.2	0
81	1626	62.3	0
81	1626	62.4	0
81	1626	62.5	0
81	1626	62.6	0
81	1626	62.7	0
81	1626	62.8	0
81	1626	62.9	0
81	1626	63	0
81	1626	63.1	0
81	1626	63.2	0
81	1626	63.3	0
81	1626	63.4	0
81	1626	63.5	0
81	1626	63.6	0
81	1626	63.7	0
81	1626	63.8	0
81	1626	63.9	0
81	1626	64	0
81	1626	64.1	0
81	1626	64.2	0
81	1626	64.3	0
81	1626	64.4	0
81	1626	64.5	0
81	1626	64.6	0
81	1626	64.7	0
81	1626	64.8	0
81	1626	64.9	0
81	1626	65	0
81	1626	65.1	0
81	1626	65.2	0
81	1626	65.3	0
81	1626	65.4	0
81	1626	65.5	0
81	1626	65.6	0
81	1626	65.7	0
81	1626	65.8	0
81	1626	65.9	0
81	1626	66	0
81	1626	66.1	0
81	1626	66.2	0
81	1626	66.3	0
81	1626	66.4	0
81	1626	66.5	0
81	1626	66.6	0
81	1626	66.7	0
81	1626	66.8	0
81	1626	66.9	0
81	1626	67	0
81	1626	67.1	0
81	1626	67.2	0
81	1626	67.3	0
81	1626	67.4	0
81	1626	67.5	0
81	1626	67.6	0
81	1626	67.7	0
81	1626	67.8	0
81	1626	67.9	0
81	1626	68	0
81	1626	68.1	0
81	1626	68.2	0
81	1626	68.3	0
81	1626	68.4	0
81	1626	68.5	0
81	1626	68.6	0
81	1626	68.7	0
81	1626	68.8	0
81	1626	68.9	0
81	1626	69	0
81	1626	69.1	0
81	1626	69.2	0
81	1626	69.3	0
81	1626	69.4	0
81	1626	69.5	0
81	1626	69.6	0
81	1626	69.7	0
81	1626	69.8	0
81	1626	69.9	0
81	1626	70	0
81	1626	70.1	0
81	1626	70.2	0
81	1626	70.3	0
81	1626	70.4	0
81	1626	70.5	0
81	1626	70.6	0
81	1626	70.7	0
81	1626	70.8	0
81	1626	70.9	0
81	1626	71	0
81	1626	71.1	0
81	1626	71.2	0
81	1626	71.3	0
81	1626	71.4	0
81	1626	71.5	0
81	1626	71.6	0
81	1626	71.7	0
81	1626	71.8	0
81	1626	71.9	0
81	1626	72	0
81	1626	72.1	0
81	1626	72.2	0
81	1626	72.3	0
81	1626	72.4	0
81	1626	72.5	0
81	1626	72.6	0
81	1626	72.7	0
81	1626	72.8	0
81	1626	72.9	0
81	1626	73	0
81	1626	73.1	0
81	1626	73.2	0
81	1626	73.3	0
81	1626	73.4	0
81	1626	73.5	0
81	1626	73.6	0
81	1626	73.7	0
81	1626	73.8	0
81	1626	73.9	0
81	1626	74	0
81	1626	74.1	0
81	1626	74.2	0
81	1626	74.3	0
81	1626	74.4	0
81	1626	74.5	0
81	1626	74.6	0
81	1626	74.7	0
81	1626	74.8	0
81	1626	74.9	0
81	1626	75	0
81	1626	75.1	0
81	1626	75.2	0
81	1626	75.3	0
81	1626	75.4	0
81	1626	75.5	0
81	1626	75.6	0
81	1626	75.7	0
81	1626	75.8	0
81	1626	75.9	0
81	1626	76	0
81	1626	76.1	0
81	1626	76.2	0
81	1626	76.3	0
81	1626	76.4	0
81	1626	76.5	0
81	1626	76.6	0
81	1626	76.7	0
81	1626	76.8	0
81	1626	76.9	0
81	1626	77	0
81	1626	77.1	0
81	1626	77.2	0
81	1626	77.3	0
81	1626	77.4	0
81	1626	77.5	0
81	1626	77.6	0
81	1626	77.7	0
81	1626	77.8	0
81	1626	77.9	0
81	1626	78	0
81	1626	78.1	0
81	1626	78.2	0
81	1626	78.3	0
81	1626	78.4	0
81	1626	78.5	0
81	1626	78.6	0
81	1626	78.7	0
81	1626	78.8	0
81	1626	78.9	0
81	1626	79	0
81	1626	79.1	0
81	1626	79.2	0
81	1626	79.3	0
81	1626	79.4	0
81	1626	79.5	0
81	1626	79.6	0
81	1626	79.7	0
81	1626	79.8	0
81	1626	79.9	0
81	1626	80	0
81	1626	80.1	0
81	1626	80.2	0
81	1626	80.3	0
81	1626	80.4	0
81	1626	80.5	0
81	1626	80.6	0
81	1626	80.7	0
81	1626	80.8	0
81	1626	80.9	0
81	1626	81	0
81	1626	81.1	0
81	1626	81.2	0
81	1626	81.3	0
81	1626	81.4	0
81	1626	81.5	0
81	1626	81.6	0
81	1626	81.7	0
81	1626	81.8	0
81	1626	81.9	0
81	1626	82	0
81	1626	82.1	0
81	1626	82.2	0
81	1626	82.3	0
81	1626	82.4	0
81	1626	82.5	0
81	1626	82.6	0
81	1626	82.7	0
81	1626	82.8	0
81	1626	82.9	0
81	1626	83	0
81	1626	83.1	0
81	1626	83.2	0
81	1626	83.3	0
81	1626	83.4	0
81	1626	83.5	0
81	1626	83.6	0
81	1626	83.7	0
81	1626	83.8	0
81	1626	83.9	0
81	1626	84	0
81	1626	84.1	0
81	1626	84.2	0
81	1626	84.3	0
81	1626	84.4	0
81	1626	84.5	0
81	1626	84.6	0
81	1626	84.7	0
81	1626	84.8	0
81	1626	84.9	0
81	1626	85	0
81	1626	85.1	0
81	1626	85.2	0
81	1626	85.3	0
81	1626	85.4	0
81	1626	85.5	0
81	1626	85.6	0
81	1626	85.7	0
81	1626	85.8	0
81	1626	85.9	0
81	1626	86	0
81	1626	86.1	0
81	1626	86.2	0
81	1626	86.3	0
81	1626	86.4	0
81	1626	86.5	0
81	1626	86.6	0
81	1626	86.7	0
81	1626	86.8	0
81	1626	86.9	0
81	1626	87	0
81	1626	87.1	0
81	1626	87.2	0
81	1626	87.3	0
81	1626	87.4	0
81	1626	87.5	0
81	1626	87.6	0
81	1626	87.7	0
81	1626	87.8	0
81	1626	87.9	0
81	1626	88	0
81	1626	88.1	0
81	1626	88.2	0
81	1626	88.3	0
81	1626	88.4	0
81	1626	88.5	0
81	1626	88.6	0
81	1626	88.7	0
81	1626	88.8	0
81	1626	88.9	0
81	1626	89	0
81	1626	89.1	0
81	1626	89.2	0
81	1626	89.3	0
81	1626	89.4	0
81	1626	89.5	0
81	1626	89.6	0
81	1626	89.7	0
81	1626	89.8	0
81	1626	89.9	0
81	1626	90	0
81	1626	90.1	0
81	1626	90.2	0
81	1626	90.3	0
81	1626	90.4	0
81	1626	90.5	0
81	1626	90.6	0
81	1626	90.7	0
81	1626	90.8	0
81	1626	90.9	0
81	1626	91	0
81	1626	91.1	0
81	1626	91.2	0
81	1626	91.3	0
81	1626	91.4	0
81	1626	91.5	0
81	1626	91.6	0
81	1626	91.7	0
81	1626	91.8	0
81	1626	91.9	0
81	1626	92	0
81	1626	92.1	0
81	1626	92.2	0
81	1626	92.3	0
81	1626	92.4	0
81	1626	92.5	0
81	1626	92.6	0
81	1626	92.7	0
81	1626	92.8	0
81	1626	92.9	0
81	1626	93	0
81	1626	93.1	0
81	1626	93.2	0
81	1626	93.3	0
81	1626	93.4	0
81	1626	93.5	0
81	1626	93.6	0
81	1626	93.7	0
81	1626	93.8	0
81	1626	93.9	0
81	1626	94	0
81	1626	94.1	0
81	1626	94.2	0
81	1626	94.3	0
81	1626	94.4	0
81	1626	94.5	0
81	1626	94.6	0
81	1626	94.7	0
81	1626	94.8	0
81	1626	94.9	0
81	1626	95	0
81	1626	95.1	0
81	1626	95.2	0
81	1626	95.3	0
81	1626	95.4	0
81	1626	95.5	0
81	1626	95.6	0
81	1626	95.7	0
81	1626	95.8	0
81	1626	95.9	0
81	1626	96	0
81	1626	96.1	0
81	1626	96.2	0
81	1626	96.3	0
81	1626	96.4	0
81	1626	96.5	0
81	1626	96.6	0
81	1626	96.7	0
81	1626	96.8	0
81	1626	96.9	0
81	1626	97	0
81	1626	97.1	0
81	1626	97.2	0
81	1626	97.3	0
81	1626	97.4	0
81	1626	97.5	0
81	1626	97.6	0
81	1626	97.7	0
81	1626	97.8	0
81	1626	97.9	0
81	1626	98	0
81	1626	98.1	0
81	1626	98.2	0
81	1626	98.3	0
81	1626	98.4	0
81	1626	98.5	0
81	1626	98.6	0
81	1626	98.7	0
81	1626	98.8	0
81	1626	98.9	0
81	1626	99	0
81	1626	99.1	0
81	1626	99.2	0
81	1626	99.3	0
81	1626	99.4	0
81	1626	99.5	0
81	1626	99.6	0
81	1626	99.7	0
81	1626	99.8	0
81	1626	99.9	0
81	1626	100	0
81	1626	100.1	0
81	1626	100.2	0
81	1626	100.3	0
81	1626	100.4	0
81	1626	100.5	0
81	1626	100.6	0
81	1626	100.7	0
81	1626	100.8	0
81	1626	100.9	0
81	1626	101	0
81	1626	101.1	0
81	1626	101.2	0
81	1626	101.3	0
81	1626	101.4	0
81	1626	101.5	0
81	1626	101.6	0
81	1626	101.7	0
81	1626	101.8	0
81	1626	101.9	0
81	1626	102	0
81	1626	102.1	0
81	1626	102.2	0
81	1626	102.3	0
81	1626	102.4	0
81	1626	102.5	0
81	1626	102.6	0
81	1626	102.7	0
81	1626	102.8	0
81	1626	102.9	0
81	1626	103	0
81	1626	103.1	0
81	1626	103.2	0
81	1626	103.3	0
81	1626	103.4	0
81	1626	103.5	0
81	1626	103.6	0
81	1626	103.7	0
81	1626	103.8	0
81	1626	103.9	0
81	1626	104	0
81	1626	104.1	0
81	1626	104.2	0
81	1626	104.3	0
81	1626	104.4	0
81	1626	104.5	0
81	1626	104.6	0
81	1626	104.7	0
81	1626	104.8	0
81	1626	104.9	0
81	1626	105	0
81	1626	105.1	0
81	1626	105.2	0
81	1626	105.3	0
81	1626	105.4	0
81	1626	105.5	0
81	1626	105.6	0
81	1626	105.7	0
81	1626	105.8	0
81	1626	105.9	0
81	1626	106	0
81	1626	106.1	0
81	1626	106.2	0
81	1626	106.3	0
81	1626	106.4	0
81	1626	106.5	0
81	1626	106.6	0
81	1626	106.7	0
81	1626	106.8	0
81	1626	106.9	0
81	1626	107	0
81	1626	107.1	0
81	1626	107.2	0
81	1626	107.3	0
81	1626	107.4	0
81	1626	107.5	0
81	1626	107.6	0
81	1626	107.7	0
81	1626	107.8	0
81	1626	107.9	0
81	1626	108	0
81	1626	108.1	0
81	1626	108.2	0
81	1626	108.3	0
81	1626	108.4	0
81	1626	108.5	0
81	1626	108.6	0
81	1626	108.7	0
81	1626	108.8	0
81	1626	108.9	0
81	1626	109	0
81	1626	109.1	0
81	1626	109.2	0
81	1626	109.3	0
81	1626	109.4	0
81	1626	109.5	0
81	1626	109.6	0
81	1626	109.7	0
81	1626	109.8	0
81	1626	109.9	0
81	1626	110	0
81	1626	110.1	0
81	1626	110.2	0
81	1626	110.3	0
81	1626	110.4	0
81	1626	110.5	0
81	1626	110.6	0
81	1626	110.7	0
81	1626	110.8	0
81	1626	110.9	0
81	1626	111	0
81	1626	111.1	0
81	1626	111.2	0
81	1626	111.3	0
81	1626	111.4	0
81	1626	111.5	0
81	1626	111.6	0
81	1626	111.7	0
81	1626	111.8	0
81	1626	111.9	0
81	1626	112	0
81	1626	112.1	0
81	1626	112.2	0
81	1626	112.3	0
81	1626	112.4	0
81	1626	112.5	0
81	1626	112.6	0
81	1626	112.7	0
81	1626	112.8	0
81	1626	112.9	0
81	1626	113	0
81	1626	113.1	0
81	1626	113.2	0
81	1626	113.3	0
81	1626	113.4	0
81	1626	113.5	0
81	1626	113.6	0
81	1626	113.7	0
81	1626	113.8	0
81	1626	113.9	0
81	1626	114	0
81	1626	114.1	0
81	1626	114.2	0
81	1626	114.3	0
81	1626	114.4	0
81	1626	114.5	0
81	1626	114.6	0
81	1626	114.7	0
81	1626	114.8	0
81	1626	114.9	0
81	1626	115	0
81	1626	115.1	0
81	1626	115.2	0
81	1626	115.3	0
81	1626	115.4	0
81	1626	115.5	0
81	1626	115.6	0
81	1626	115.7	0
81	1626	115.8	0
81	1626	115.9	0
81	1626	116	0
81	1626	116.1	0
81	1626	116.2	0
81	1626	116.3	0
81	1626	116.4	0
81	1626	116.5	0
81	1626	116.6	0
81	1626	116.7	0
81	1626	116.8	0
81	1626	116.9	0
81	1626	117	0
81	1626	117.1	0
81	1626	117.2	0
81	1626	117.3	0
81	1626	117.4	0
81	1626	117.5	0
81	1626	117.6	0
81	1626	117.7	0
81	1626	117.8	0
81	1626	117.9	0
81	1626	118	0
81	1626	118.1	0
81	1626	118.2	0
81	1626	118.3	0
81	1626	118.4	0
81	1626	118.5	0
81	1626	118.6	0
81	1626	118.7	0
81	1626	118.8	0
81	1626	118.9	0
81	1626	119	0
81	1626	119.1	0
81	1626	119.2	0
81	1626	119.3	0
81	1626	119.4	0
81	1626	119.5	0
81	1626	119.6	0
81	1626	119.7	0
81	1626	119.8	0
81	1626	119.9	0
81	1626	120	0
81	1626	120.1	0
81	1626	120.2	0
81	1626	120.3	0
81	1626	120.4	0
81	1626	120.5	0
81	1626	120.6	0
81	1626	120.7	0
81	1626	120.8	0
81	1626	120.9	0
81	1626	121	0
81	1626	121.1	0
81	1626	121.2	0
81	1626	121.3	0
81	1626	121.4	0
81	1626	121.5	0
81	1626	121.6	0
81	1626	121.7	0
81	1626	121.8	0
81	1626	121.9	0
81	1626	122	0
81	1626	122.1	0
81	1626	122.2	0
81	1626	122.3	0
81	1626	122.4	0
81	1626	122.5	0
81	1626	122.6	0
81	1626	122.7	0
81	1626	122.8	0
81	1626	122.9	0
81	1626	123	0
81	1626	123.1	0
81	1626	123.2	0
81	1626	123.3	0
81	1626	123.4	0
81	1626	123.5	0
81	1626	123.6	0
81	1626	123.7	0
81	1626	123.8	0
81	1626	123.9	0
81	1626	124	0
81	1626	124.1	0
81	1626	124.2	0
81	1626	124.3	0
81	1626	124.4	0
81	1626	124.5	0
81	1626	124.6	0
81	1626	124.7	0
81	1626	124.8	0
81	1626	124.9	0
81	1626	125	0
81	1626	125.1	0
81	1626	125.2	0
81	1626	125.3	0
81	1626	125.4	0
81	1626	125.5	0
81	1626	125.6	0
81	1626	125.7	0
81	1626	125.8	0
81	1626	125.9	0
81	1626	126	0
81	1626	126.1	0
81	1626	126.2	0
81	1626	126.3	0
81	1626	126.4	0
81	1626	126.5	0
81	1626	126.6	0
81	1626	126.7	0
81	1626	126.8	0
81	1626	126.9	0
81	1626	127	0
81	1626	127.1	0
81	1626	127.2	0
81	1626	127.3	0
81	1626	127.4	0
81	1626	127.5	0
81	1626	127.6	0
81	1626	127.7	0
81	1626	127.8	0
81	1626	127.9	0
81	1626	128	0
81	1626	128.1	0
81	1626	128.2	0
81	1626	128.3	0
81	1626	128.4	0
81	1626	128.5	0
81	1626	128.6	0
81	1626	128.7	0
81	1626	128.8	0
81	1626	128.9	0
81	1626	129	0
81	1626	129.1	0
81	1626	129.2	0
81	1626	129.3	0
81	1626	129.4	0
81	1626	129.5	0
81	1626	129.6	0
81	1626	129.7	0
81	1626	129.8	0
81	1626	129.9	0
81	1626	130	0
81	1626	130.1	0
81	1626	130.2	0
81	1626	130.3	0
81	1626	130.4	0
81	1626	130.5	0
81	1626	130.6	0
81	1626	130.7	0
81	1626	130.8	0
81	1626	130.9	0
81	1626	131	0
81	1626	131.1	0
81	1626	131.2	0
81	1626	131.3	0
81	1626	131.4	0
81	1626	131.5	0
81	1626	131.6	0
81	1626	131.7	0
81	1626	131.8	0
81	1626	131.9	0
81	1626	132	0
81	1626	132.1	0
81	1626	132.2	0
81	1626	132.3	0
81	1626	132.4	0
81	1626	132.5	0
81	1626	132.6	0
81	1626	132.7	0
81	1626	132.8	0
81	1626	132.9	0
81	1626	133	0
81	1626	133.1	0
81	1626	133.2	0
81	1626	133.3	0
81	1626	133.4	0
81	1626	133.5	0
81	1626	133.6	0
81	1626	133.7	0
81	1626	133.8	0
81	1626	133.9	0
81	1626	134	0
81	1626	134.1	0
81	1626	134.2	0
81	1626	134.3	0
81	1626	134.4	0
81	1626	134.5	0
81	1626	134.6	0
81	1626	134.7	0
81	1626	134.8	0
81	1626	134.9	0
81	1626	135	0
81	1626	135.1	0
81	1626	135.2	0
81	1626	135.3	0
81	1626	135.4	0
81	1626	135.5	0
81	1626	135.6	0
81	1626	135.7	0
81	1626	135.8	0
81	1626	135.9	0
81	1626	136	0
81	1626	136.1	0
81	1626	136.2	0
81	1626	136.3	0
81	1626	136.4	0
81	1626	136.5	0
81	1626	136.6	0
81	1626	136.7	0
81	1626	136.8	0
81	1626	136.9	0
81	1626	137	0
81	1626	137.1	0
81	1626	137.2	0
81	1626	137.3	0
81	1626	137.4	0
81	1626	137.5	0
81	1626	137.6	0
81	1626	137.7	0
81	1626	137.8	0
81	1626	137.9	0
81	1626	138	0
81	1626	138.1	0
81	1626	138.2	0
81	1626	138.3	0
81	1626	138.4	0
81	1626	138.5	0
81	1626	138.6	0
81	1626	138.7	0
81	1626	138.8	0
81	1626	138.9	0
81	1626	139	0
81	1626	139.1	0
81	1626	139.2	0
81	1626	139.3	0
81	1626	139.4	0
81	1626	139.5	0
81	1626	139.6	0
81	1626	139.7	0
81	1626	139.8	0
81	1626	139.9	0
81	1626	140	0
81	1626	140.1	0
81	1626	140.2	0
81	1626	140.3	0
81	1626	140.4	0
81	1626	140.5	0
81	1626	140.6	0
81	1626	140.7	0
81	1626	140.8	0
81	1626	140.9	0
81	1626	141	0
81	1626	141.1	0
81	1626	141.2	0
81	1626	141.3	0
81	1626	141.4	0
81	1626	141.5	0
81	1626	141.6	0
81	1626	141.7	0
81	1626	141.8	0
81	1626	141.9	0
81	1626	142	0
81	1626	142.1	0
81	1626	142.2	0
81	1626	142.3	0
81	1626	142.4	0
81	1626	142.5	0
81	1626	142.6	0
81	1626	142.7	0
81	1626	142.8	0
81	1626	142.9	0
81	1626	143	0
81	1626	143.1	0
81	1626	143.2	0
81	1626	143.3	0
81	1626	143.4	0
81	1626	143.5	0
81	1626	143.6	0
81	1626	143.7	0
81	1626	143.8	0
81	1626	143.9	0
81	1626	144	0
81	1626	144.1	0
81	1626	144.2	0
81	1626	144.3	0
81	1626	144.4	0
81	1626	144.5	0
81	1626	144.6	0
81	1626	144.7	0
81	1626	144.8	0
81	1626	144.9	0
81	1626	145	0
81	1626	145.1	0
81	1626	145.2	0
81	1626	145.3	0
81	1626	145.4	0
81	1626	145.5	0
81	1626	145.6	0
81	1626	145.7	0
81	1626	145.8	0
81	1626	145.9	0
81	1626	146	0
81	1626	146.1	0
81	1626	146.2	0
81	1626	146.3	0
81	1626	146.4	0
81	1626	146.5	0
81	1626	146.6	0
81	1626	146.7	0
81	1626	146.8	0
81	1626	146.9	0
81	1626	147	0
81	1626	147.1	0
81	1626	147.2	0
81	1626	147.3	0
81	1626	147.4	0
81	1626	147.5	0
81	1626	147.6	0
81	1626	147.7	0
81	1626	147.8	0
81	1626	147.9	0
81	1626	148	0
81	1626	148.1	0
81	1626	148.2	0
81	1626	148.3	0
81	1626	148.4	0
81	1626	148.5	0
81	1626	148.6	0
81	1626	148.7	0
81	1626	148.8	0
81	1626	148.9	0
81	1626	149	0
81	1626	149.1	0
81	1626	149.2	0
81	1626	149.3	0
81	1626	149.4	0
81	1626	149.5	0
81	1626	149.6	0
81	1626	149.7	0
81	1626	149.8	0
81	1626	149.9	0
81	1626	150	0
81	1626	150.1	0
81	1626	150.2	0
81	1626	150.3	0
81	1626	150.4	0
81	1626	150.5	0
81	1626	150.6	0
81	1626	150.7	0
81	1626	150.8	0
81	1626	150.9	0
81	1626	151	0
81	1626	151.1	0
81	1626	151.2	0
81	1626	151.3	0
81	1626	151.4	0
81	1626	151.5	0
81	1626	151.6	0
81	1626	151.7	0
81	1626	151.8	0
81	1626	151.9	0
81	1626	152	0
81	1626	152.1	0
81	1626	152.2	0
81	1626	152.3	0
81	1626	152.4	0
81	1626	152.5	0
81	1626	152.6	0
81	1626	152.7	0
81	1626	152.8	0
81	1626	152.9	0
81	1626	153	0
81	1626	153.1	0
81	1626	153.2	0
81	1626	153.3	0
81	1626	153.4	0
81	1626	153.5	0
81	1626	153.6	0
81	1626	153.7	0
81	1626	153.8	0
81	1626	153.9	0
81	1626	154	0
81	1626	154.1	0
81	1626	154.2	0
81	1626	154.3	0
81	1626	154.4	0
81	1626	154.5	0
81	1626	154.6	0
81	1626	154.7	0
81	1626	154.8	0
81	1626	154.9	0
81	1626	155	0
81	1626	155.1	0
vector 82 Scenario.node[1].app[0] throughput:vector ETV
attr source throughput(packetReceived)
attr title "throughput, vector"
attr unit bps
15	32	2.1	15
14	32	2.1	1
12	32	2.1	0
12	32	2.1	0
12	32	2.1	2
13	32	2.1	3
82	1656	0.1	0
82	1656	0.2	0
82	1656	0.3	0
82	1656	0.4	0
82	1656	0.5	0
82	1656	0.6	0
82	1656	0.7	0
82	1656	0.8	0
82	1656	0.9	0
82	1656	1	0
82	1656	1.1	0
82	1656	1.2	0
82	1656	1.3	0
82	1656	1.4	0
82	1656	1.5	0
82	1656	1.6	0
82	1656	1.7	0
82	1656	1.8	0
82	1656	1.9	0
82	1656	2	0
82	1656	2.1	0
82	1656	2.2	0
82	1656	2.3	0
82	1656	2.4	0
82	1656	2.5	0
82	1656	2.6	0
82	1656	2.7	0
82	1656	2.8	0
82	1656	2.9	0
82	1656	3	0
82	1656	3.1	0
82	1656	3.2	0
82	1656	3.3	0
82	1656	3.4	0
82	1656	3.5	0
82	1656	3.6	0
82	1656	3.7	0
82	1656	3.8	0
82	1656	3.9	0
82	1656	4	0
82	1656	4.1	0
82	1656	4.2	0
82	1656	4.3	0
82	1656	4.4	0
82	1656	4.5	0
82	1656	4.6	0
82	1656	4.7	0
82	1656	4.8	0
82	1656	4.9	0
82	1656	5	0
82	1656	5.1	0
82	1656	5.2	0
82	1656	5.3	0
82	1656	5.4	0
82	1656	5.5	0
82	1656	5.6	0
82	1656	5.7	0
82	1656	5.8	0
82	1656	5.9	0
82	1656	6	0
82	1656	6.1	0
82	1656	6.2	0
82	1656	6.3	0
82	1656	6.4	0
82	1656	6.5	0
82	1656	6.6	0
82	1656	6.7	0
82	1656	6.8	0
82	1656	6.9	0
82	1656	7	0
82	1656	7.1	0
82	1656	7.2	0
82	1656	7.3	0
82	1656	7.4	0
82	1656	7.5	0
82	1656	7.6	0
82	1656	7.7	0
82	1656	7.8	0
82	1656	7.9	0
82	1656	8	0
82	1656	8.1	0
82	1656	8.2	0
82	1656	8.3	0
82	1656	8.4	0
82	1656	8.5	0
82	1656	8.6	0
82	1656	8.7	0
82	1656	8.8	0
82	1656	8.9	0
82	1656	9	0
82	1656	9.1	0
82	1656	9.2	0
82	1656	9.3	0
82	1656	9.4	0
82	1656	9.5	0
82	1656	9.6	0
82	1656	9.7	0
82	1656	9.8	0
82	1656	9.9	0
82	1656	10	0
82	1656	10.1	0
82	1656	10.2	0
82	1656	10.3	0
82	1656	10.4	0
82	1656	10.5	0
82	1656	10.6	0
82	1656	10.7	0
82	1656	10.8	0
82	1656	10.9	0
82	1656	11	0
82	1656	11.1	0
82	1656	11.2	0
82	1656	11.3	0
82	1656	11.4	0
82	1656	11.5	0
82	1656	11.6	0
82	1656	11.7	0
82	1656	11.8	0
82	1656	11.9	0
82	1656	12	0
82	1656	12.1	0
82	1656	12.2	0
82	1656	12.3	0
82	1656	12.4	0
82	1656	12.5	0
82	1656	12.6	0
82	1656	12.7	0
82	1656	12.8	0
82	1656	12.9	0
82	1656	13	0
82	1656	13.1	0
82	1656	13.2	0
82	1656	13.3	0
82	1656	13.4	0
82	1656	13.5	0
82	1656	13.6	0
82	1656	13.7	0
82	1656	13.8	0
82	1656	13.9	0
82	1656	14	0
82	1656	14.1	0
82	1656	14.2	0
82	1656	14.3	0
82	1656	14.4	0
82	1656	14.5	0
82	1656	14.6	0
82	1656	14.7	0
82	1656	14.8	0
82	1656	14.9	0
82	1656	15	0
82	1656	15.1	0
82	1656	15.2	0
82	1656	15.3	0
82	1656	15.4	0
82	1656	15.5	0
82	1656	15.6	0
82	1656	15.7	0
82	1656	15.8	0
82	1656	15.9	0
82	1656	16	0
82	1656	16.1	0
82	1656	16.2	0
82	1656	16.3	0
82	1656	16.4	0
82	1656	16.5	0
82	1656	16.6	0
82	1656	16.7	0
82	1656	16.8	0
82	1656	16.9	0
82	1656	17	0
82	1656	17.1	0
82	1656	17.2	0
82	1656	17.3	0
82	1656	17.4	0
82	1656	17.5	0
82	1656	17.6	0
82	1656	17.7	0
82	1656	17.8	0
82	1656	17.9	0
82	1656	18	0
82	1656	18.1	0
82	1656	18.2	0
82	1656	18.3	0
82	1656	18.4	0
82	1656	18.5	0
82	1656	18.6	0
82	1656	18.7	0
82	1656	18.8	0
82	1656	18.9	0
82	1656	19	0
82	1656	19.1	0
82	1656	19.2	0
82	1656	19.3	0
82	1656	19.4	0
82	1656	19.5	0
82	1656	19.6	0
82	1656	19.7	0
82	1656	19.8	0
82	1656	19.9	0
82	1656	20	0
82	1656	20.1	0
82	1656	20.2	0
82	1656	20.3	0
82	1656	20.4	0
82	1656	20.5	0
82	1656	20.6	0
82	1656	20.7	0
82	1656	20.8	0
82	1656	20.9	0
82	1656	21	0
82	1656	21.1	0
82	1656	21.2	0
82	1656	21.3	0
82	1656	21.4	0
82	1656	21.5	0
82	1656	21.6	0
82	1656	21.7	0
82	1656	21.8	0
82	1656	21.9	0
82	1656	22	0
82	1656	22.1	0
82	1656	22.2	0
82	1656	22.3	0
82	1656	22.4	0
82	1656	22.5	0
82	1656	22.6	0
82	1656	22.7	0
82	1656	22.8	0
82	1656	22.9	0
82	1656	23	0
82	1656	23.1	0
82	1656	23.2	0
82	1656	23.3	0
82	1656	23.4	0
82	1656	23.5	0
82	1656	23.6	0
82	1656	23.7	0
82	1656	23.8	0
82	1656	23.9	0
82	1656	24	0
82	1656	24.1	0
82	1656	24.2	0
82	1656	24.3	0
82	1656	24.4	0
82	1656	24.5	0
82	1656	24.6	0
82	1656	24.7	0
82	1656	24.8	0
82	1656	24.9	0
82	1656	25	0
82	1656	25.1	0
82	1656	25.2	0
82	1656	25.3	0
82	1656	25.4	0
82	1656	25.5	0
82	1656	25.6	0
82	1656	25.7	0
82	1656	25.8	0
82	1656	25.9	0
82	1656	26	0
82	1656	26.1	0
82	1656	26.2	0
82	1656	26.3	0
82	1656	26.4	0
82	1656	26.5	0
82	1656	26.6	0
82	1656	26.7	0
82	1656	26.8	0
82	1656	26.9	0
82	1656	27	0
82	1656	27.1	0
82	1656	27.2	0
82	1656	27.3	0
82	1656	27.4	0
82	1656	27.5	0
82	1656	27.6	0
82	1656	27.7	0
82	1656	27.8	0
82	1656	27.9	0
82	1656	28	0
82	1656	28.1	0
82	1656	28.2	0
82	1656	28.3	0
82	1656	28.4	0
82	1656	28.5	0
82	1656	28.6	0
82	1656	28.7	0
82	1656	28.8	0
82	1656	28.9	0
82	1656	29	0
82	1656	29.1	0
82	1656	29.2	0
82	1656	29.3	0
82	1656	29.4	0
82	1656	29.5	0
82	1656	29.6	0
82	1656	29.7	0
82	1656	29.8	0
82	1656	29.9	0
82	1656	30	0
82	1656	30.1	0
82	1656	30.2	0
82	1656	30.3	0
82	1656	30.4	0
82	1656	30.5	0
82	1656	30.6	0
82	1656	30.7	0
82	1656	30.8	0
82	1656	30.9	0
82	1656	31	0
82	1656	31.1	0
82	1656	31.2	0
82	1656	31.3	0
82	1656	31.4	0
82	1656	31.5	0
82	1656	31.6	0
82	1656	31.7	0
82	1656	31.8	0
82	1656	31.9	0
82	1656	32	0
82	1656	32.1	0
82	1656	32.2	0
82	1656	32.3	0
82	1656	32.4	0
82	1656	32.5	0
82	1656	32.6	0
82	1656	32.7	0
82	1656	32.8	0
82	1656	32.9	0
82	1656	33	0
82	1656	33.1	0
82	1656	33.2	0
82	1656	33.3	0
82	1656	33.4	0
82	1656	33.5	0
82	1656	33.6	0
82	1656	33.7	0
82	1656	33.8	0
82	1656	33.9	0
82	1656	34	0
82	1656	34.1	0
82	1656	34.2	0
82	1656	34.3	0
82	1656	34.4	0
82	1656	34.5	0
82	1656	34.6	0
82	1656	34.7	0
82	1656	34.8	0
82	1656	34.9	0
82	1656	35	0
82	1656	35.1	0
82	1656	35.2	0
82	1656	35.3	0
82	1656	35.4	0
82	1656	35.5	0
82	1656	35.6	0
82	1656	35.7	0
82	1656	35.8	0
82	1656	35.9	0
82	1656	36	0
82	1656	36.1	0
82	1656	36.2	0
82	1656	36.3	0
82	1656	36.4	0
82	1656	36.5	0
82	1656	36.6	0
82	1656	36.7	0
82	1656	36.8	0
82	1656	36.9	0
82	1656	37	0
82	1656	37.1	0
82	1656	37.2	0
82	1656	37.3	0
82	1656	37.4	0
82	1656	37.5	0
82	1656	37.6	0
82	1656	37.7	0
82	1656	37.8	0
82	1656	37.9	0
82	1656	38	0
82	1656	38.1	0
82	1656	38.2	0
82	1656	38.3	0
82	1656	38.4	0
82	1656	38.5	0
82	1656	38.6	0
82	1656	38.7	0
82	1656	38.8	0
82	1656	38.9	0
82	1656	39	0
82	1656	39.1	0
82	1656	39.2	0
82	1656	39.3	0
82	1656	39.4	0
82	1656	39.5	0
82	1656	39.6	0
82	1656	39.7	0
82	1656	39.8	0
82	1656	39.9	0
82	1656	40	0
82	1656	40.1	0
82	1656	40.2	0
82	1656	40.3	0
82	1656	40.4	0
82	1656	40.5	0
82	1656	40.6	0
82	1656	40.7	0
82	1656	40.8	0
82	1656	40.9	0
82	1656	41	0
82	1656	41.1	0
82	1656	41.2	0
82	1656	41.3	0
82	1656	41.4	0
82	1656	41.5	0
82	1656	41.6	0
82	1656	41.7	0
82	1656	41.8	0
82	1656	41.9	0
82	1656	42	0
82	1656	42.1	0
82	1656	42.2	0
82	1656	42.3	0
82	1656	42.4	0
82	1656	42.5	0
82	1656	42.6	0
82	1656	42.7	0
82	1656	42.8	0
82	1656	42.9	0
82	1656	43	0
82	1656	43.1	0
82	1656	43.2	0
82	1656	43.3	0
82	1656	43.4	0
82	1656	43.5	0
82	1656	43.6	0
82	1656	43.7	0
82	1656	43.8	0
82	1656	43.9	0
82	1656	44	0
82	1656	44.1	0
82	1656	44.2	0
82	1656	44.3	0
82	1656	44.4	0
82	1656	44.5	0
82	1656	44.6	0
82	1656	44.7	0
82	1656	44.8	0
82	1656	44.9	0
82	1656	45	0
82	1656	45.1	0
82	1656	45.2	0
82	1656	45.3	0
82	1656	45.4	0
82	1656	45.5	0
82	1656	45.6	0
82	1656	45.7	0
82	1656	45.8	0
82	1656	45.9	0
82	1656	46	0
82	1656	46.1	0
82	1656	46.2	0
82	1656	46.3	0
82	1656	46.4	0
82	1656	46.5	0
82	1656	46.6	0
82	1656	46.7	0
82	1656	46.8	0
82	1656	46.9	0
82	1656	47	0
82	1656	47.1	0
82	1656	47.2	0
82	1656	47.3	0
82	1656	47.4	0
82	1656	47.5	0
82	1656	47.6	0
82	1656	47.7	0
82	1656	47.8	0
82	1656	47.9	0
82	1656	48	0
82	1656	48.1	0
82	1656	48.2	0
82	1656	48.3	0
82	1656	48.4	0
82	1656	48.5	0
82	1656	48.6	0
82	1656	48.7	0
82	1656	48.8	0
82	1656	48.9	0
82	1656	49	0
82	1656	49.1	0
82	1656	49.2	0
82	1656	49.3	0
82	1656	49.4	0
82	1656	49.5	0
82	1656	49.6	0
82	1656	49.7	0
82	1656	49.8	0
82	1656	49.9	0
82	1656	50	0
82	1656	50.1	0
82	1656	50.2	0
82	1656	50.3	0
82	1656	50.4	0
82	1656	50.5	0
82	1656	50.6	0
82	1656	50.7	0
82	1656	50.8	0
82	1656	50.9	0
82	1656	51	0
82	1656	51.1	0
82	1656	51.2	0
82	1656	51.3	0
82	1656	51.4	0
82	1656	51.5	0
82	1656	51.6	0
82	1656	51.7	0
82	1656	51.8	0
82	1656	51.9	0
82	1656	52	0
82	1656	52.1	0
82	1656	52.2	0
82	1656	52.3	0
82	1656	52.4	0
82	1656	52.5	0
82	1656	52.6	0
82	1656	52.7	0
82	1656	52.8	0
82	1656	52.9	0
82	1656	53	0
82	1656	53.1	0
82	1656	53.2	0
82	1656	53.3	0
82	1656	53.4	0
82	1656	53.5	0
82	1656	53.6	0
82	1656	53.7	0
82	1656	53.8	0
82	1656	53.9	0
82	1656	54	0
82	1656	54.1	0
82	1656	54.2	0
82	1656	54.3	0
82	1656	54.4	0
82	1656	54.5	0
82	1656	54.6	0
82	1656	54.7	0
82	1656	54.8	0
82	1656	54.9	0
82	1656	55	0
82	1656	55.1	0
82	1656	55.2	0
82	1656	55.3	0
82	1656	55.4	0
82	1656	55.5	0
82	1656	55.6	0
82	1656	55.7	0
82	1656	55.8	0
82	1656	55.9	0
82	1656	56	0
82	1656	56.1	0
82	1656	56.2	0
82	1656	56.3	0
82	1656	56.4	0
82	1656	56.5	0
82	1656	56.6	0
82	1656	56.7	0
82	1656	56.8	0
82	1656	56.9	0
82	1656	57	0
82	1656	57.1	0
82	1656	57.2	0
82	1656	57.3	0
82	1656	57.4	0
82	1656	57.5	0
82	1656	57.6	0
82	1656	57.7	0
82	1656	57.8	0
82	1656	57.9	0
82	1656	58	0
82	1656	58.1	0
82	1656	58.2	0
82	1656	58.3	0
82	1656	58.4	0
82	1656	58.5	0
82	1656	58.6	0
82	1656	58.7	0
82	1656	58.8	0
82	1656	58.9	0
82	1656	59	0
82	1656	59.1	0
82	1656	59.2	0
82	1656	59.3	0
82	1656	59.4	0
82	1656	59.5	0
82	1656	59.6	0
82	1656	59.7	0
82	1656	59.8	0
82	1656	59.9	0
82	1656	60	0
82	1656	60.1	0
82	1656	60.2	0
82	1656	60.3	0
82	1656	60.4	0
82	1656	60.5	0
82	1656	60.6	0
82	1656	60.7	0
82	1656	60.8	0
82	1656	60.9	0
82	1656	61	0
82	1656	61.1	0
82	1656	61.2	0
82	1656	61.3	0
82	1656	61.4	0
82	1656	61.5	0
82	1656	61.6	0
82	1656	61.7	0
82	1656	61.8	0
82	1656	61.9	0
82	1656	62	0
82	1656	62.1	0
82	1656	62.2	0
82	1656	62.3	0
82	1656	62.4	0
82	1656	62.5	0
82	1656	62.6	0
82	1656	62.7	0
82	1656	62.8	0
82	1656	62.9	0
82	1656	63	0
82	1656	63.1	0
82	1656	63.2	0
82	1656	63.3	0
82	1656	63.4	0
82	1656	63.5	0
82	1656	63.6	0
82	1656	63.7	0
82	1656	63.8	0
82	1656	63.9	0
82	1656	64	0
82	1656	64.1	0
82	1656	64.2	0
82	1656	64.3	0
82	1656	64.4	0
82	1656	64.5	0
82	1656	64.6	0
82	1656	64.7	0
82	1656	64.8	0
82	1656	64.9	0
82	1656	65	0
82	1656	65.1	0
82	1656	65.2	0
82	1656	65.3	0
82	1656	65.4	0
82	1656	65.5	0
82	1656	65.6	0
82	1656	65.7	0
82	1656	65.8	0
82	1656	65.9	0
82	1656	66	0
82	1656	66.1	0
82	1656	66.2	0
82	1656	66.3	0
82	1656	66.4	0
82	1656	66.5	0
82	1656	66.6	0
82	1656	66.7	0
82	1656	66.8	0
82	1656	66.9	0
82	1656	67	0
82	1656	67.1	0
82	1656	67.2	0
82	1656	67.3	0
82	1656	67.4	0
82	1656	67.5	0
82	1656	67.6	0
82	1656	67.7	0
82	1656	67.8	0
82	1656	67.9	0
82	1656	68	0
82	1656	68.1	0
82	1656	68.2	0
82	1656	68.3	0
82	1656	68.4	0
82	1656	68.5	0
82	1656	68.6	0
82	1656	68.7	0
82	1656	68.8	0
82	1656	68.9	0
82	1656	69	0
82	1656	69.1	0
82	1656	69.2	0
82	1656	69.3	0
82	1656	69.4	0
82	1656	69.5	0
82	1656	69.6	0
82	1656	69.7	0
82	1656	69.8	0
82	1656	69.9	0
82	1656	70	0
82	1656	70.1	0
82	1656	70.2	0
82	1656	70.3	0
82	1656	70.4	0
82	1656	70.5	0
82	1656	70.6	0
82	1656	70.7	0
82	1656	70.8	0
82	1656	70.9	0
82	1656	71	0
82	1656	71.1	0
82	1656	71.2	0
82	1656	71.3	0
82	1656	71.4	0
82	1656	71.5	0
82	1656	71.6	0
82	1656	71.7	0
82	1656	71.8	0
82	1656	71.9	0
82	1656	72	0
82	1656	72.1	0
82	1656	72.2	0
82	1656	72.3	0
82	1656	72.4	0
82	1656	72.5	0
82	1656	72.6	0
82	1656	72.7	0
82	1656	72.8	0
82	1656	72.9	0
82	1656	73	0
82	1656	73.1	0
82	1656	73.2	0
82	1656	73.3	0
82	1656	73.4	0
82	1656	73.5	0
82	1656	73.6	0
82	1656	73.7	0
82	1656	73.8	0
82	1656	73.9	0
82	1656	74	0
82	1656	74.1	0
82	1656	74.2	0
82	1656	74.3	0
82	1656	74.4	0
82	1656	74.5	0
82	1656	74.6	0
82	1656	74.7	0
82	1656	74.8	0
82	1656	74.9	0
82	1656	75	0
82	1656	75.1	0
82	1656	75.2	0
82	1656	75.3	0
82	1656	75.4	0
82	1656	75.5	0
82	1656	75.6	0
82	1656	75.7	0
82	1656	75.8	0
82	1656	75.9	0
82	1656	76	0
82	1656	76.1	0
82	1656	76.2	0
82	1656	76.3	0
82	1656	76.4	0
82	1656	76.5	0
82	1656	76.6	0
82	1656	76.7	0
82	1656	76.8	0
82	1656	76.9	0
82	1656	77	0
82	1656	77.1	0
82	1656	77.2	0
82	1656	77.3	0
82	1656	77.4	0
82	1656	77.5	0
82	1656	77.6	0
82	1656	77.7	0
82	1656	77.8	0
82	1656	77.9	0
82	1656	78	0
82	1656	78.1	0
82	1656	78.2	0
82	1656	78.3	0
82	1656	78.4	0
82	1656	78.5	0
82	1656	78.6	0
82	1656	78.7	0
82	1656	78.8	0
82	1656	78.9	0
82	1656	79	0
82	1656	79.1	0
82	1656	79.2	0
82	1656	79.3	0
82	1656	79.4	0
82	1656	79.5	0
82	1656	79.6	0
82	1656	79.7	0
82	1656	79.8	0
82	1656	79.9	0
82	1656	80	0
82	1656	80.1	0
82	1656	80.2	0
82	1656	80.3	0
82	1656	80.4	0
82	1656	80.5	0
82	1656	80.6	0
82	1656	80.7	0
82	1656	80.8	0
82	1656	80.9	0
82	1656	81	0
82	1656	81.1	0
82	1656	81.2	0
82	1656	81.3	0
82	1656	81.4	0
82	1656	81.5	0
82	1656	81.6	0
82	1656	81.7	0
82	1656	81.8	0
82	1656	81.9	0
82	1656	82	0
82	1656	82.1	0
82	1656	82.2	0
82	1656	82.3	0
82	1656	82.4	0
82	1656	82.5	0
82	1656	82.6	0
82	1656	82.7	0
82	1656	82.8	0
82	1656	82.9	0
82	1656	83	0
82	1656	83.1	0
82	1656	83.2	0
82	1656	83.3	0
82	1656	83.4	0
82	1656	83.5	0
82	1656	83.6	0
82	1656	83.7	0
82	1656	83.8	0
82	1656	83.9	0
82	1656	84	0
82	1656	84.1	0
82	1656	84.2	0
82	1656	84.3	0
82	1656	84.4	0
82	1656	84.5	0
82	1656	84.6	0
82	1656	84.7	0
82	1656	84.8	0
82	1656	84.9	0
82	1656	85	0
82	1656	85.1	0
82	1656	85.2	0
82	1656	85.3	0
82	1656	85.4	0
82	1656	85.5	0
82	1656	85.6	0
82	1656	85.7	0
82	1656	85.8	0
82	1656	85.9	0
82	1656	86	0
82	1656	86.1	0
82	1656	86.2	0
82	1656	86.3	0
82	1656	86.4	0
82	1656	86.5	0
82	1656	86.6	0
82	1656	86.7	0
82	1656	86.8	0
82	1656	86.9	0
82	1656	87	0
82	1656	87.1	0
82	1656	87.2	0
82	1656	87.3	0
82	1656	87.4	0
82	1656	87.5	0
82	1656	87.6	0
82	1656	87.7	0
82	1656	87.8	0
82	1656	87.9	0
82	1656	88	0
82	1656	88.1	0
82	1656	88.2	0
82	1656	88.3	0
82	1656	88.4	0
82	1656	88.5	0
82	1656	88.6	0
82	1656	88.7	0
82	1656	88.8	0
82	1656	88.9	0
82	1656	89	0
82	1656	89.1	0
82	1656	89.2	0
82	1656	89.3	0
82	1656	89.4	0
82	1656	89.5	0
82	1656	89.6	0
82	1656	89.7	0
82	1656	89.8	0
82	1656	89.9	0
82	1656	90	0
82	1656	90.1	0
82	1656	90.2	0
82	1656	90.3	0
82	1656	90.4	0
82	1656	90.5	0
82	1656	90.6	0
82	1656	90.7	0
82	1656	90.8	0
82	1656	90.9	0
82	1656	91	0
82	1656	91.1	0
82	1656	91.2	0
82	1656	91.3	0
82	1656	91.4	0
82	1656	91.5	0
82	1656	91.6	0
82	1656	91.7	0
82	1656	91.8	0
82	1656	91.9	0
82	1656	92	0
82	1656	92.1	0
82	1656	92.2	0
82	1656	92.3	0
82	1656	92.4	0
82	1656	92.5	0
82	1656	92.6	0
82	1656	92.7	0
82	1656	92.8	0
82	1656	92.9	0
82	1656	93	0
82	1656	93.1	0
82	1656	93.2	0
82	1656	93.3	0
82	1656	93.4	0
82	1656	93.5	0
82	1656	93.6	0
82	1656	93.7	0
82	1656	93.8	0
82	1656	93.9	0
82	1656	94	0
82	1656	94.1	0
82	1656	94.2	0
82	1656	94.3	0
82	1656	94.4	0
82	1656	94.5	0
82	1656	94.6	0
82	1656	94.7	0
82	1656	94.8	0
82	1656	94.9	0
82	1656	95	0
82	1656	95.1	0
82	1656	95.2	0
82	1656	95.3	0
82	1656	95.4	0
82	1656	95.5	0
82	1656	95.6	0
82	1656	95.7	0
82	1656	95.8	0
82	1656	95.9	0
82	1656	96	0
82	1656	96.1	0
82	1656	96.2	0
82	1656	96.3	0
82	1656	96.4	0
82	1656	96.5	0
82	1656	96.6	0
82	1656	96.7	0
82	1656	96.8	0
82	1656	96.9	0
82	1656	97	0
82	1656	97.1	0
82	1656	97.2	0
82	1656	97.3	0
82	1656	97.4	0
82	1656	97.5	0
82	1656	97.6	0
82	1656	97.7	0
82	1656	97.8	0
82	1656	97.9	0
82	1656	98	0
82	1656	98.1	0
82	1656	98.2	0
82	1656	98.3	0
82	1656	98.4	0
82	1656	98.5	0
82	1656	98.6	0
82	1656	98.7	0
82	1656	98.8	0
82	1656	98.9	0
82	1656	99	0
82	1656	99.1	0
82	1656	99.2	0
82	1656	99.3	0
82	1656	99.4	0
82	1656	99.5	0
82	1656	99.6	0
82	1656	99.7	0
82	1656	99.8	0
82	1656	99.9	0
82	1656	100	0
82	1656	100.1	0
82	1656	100.2	0
82	1656	100.3	0
82	1656	100.4	0
82	1656	100.5	0
82	1656	100.6	0
82	1656	100.7	0
82	1656	100.8	0
82	1656	100.9	0
82	1656	101	0
82	1656	101.1	0
82	1656	101.2	0
82	1656	101.3	0
82	1656	101.4	0
82	1656	101.5	0
82	1656	101.6	0
82	1656	101.7	0
82	1656	101.8	0
82	1656	101.9	0
82	1656	102	0
82	1656	102.1	0
82	1656	102.2	0
82	1656	102.3	0
82	1656	102.4	0
82	1656	102.5	0
82	1656	102.6	0
82	1656	102.7	0
82	1656	102.8	0
82	1656	102.9	0
82	1656	103	0
82	1656	103.1	0
82	1656	103.2	0
82	1656	103.3	0
82	1656	103.4	0
82	1656	103.5	0
82	1656	103.6	0
82	1656	103.7	0
82	1656	103.8	0
82	1656	103.9	0
82	1656	104	0
82	1656	104.1	0
82	1656	104.2	0
82	1656	104.3	0
82	1656	104.4	0
82	1656	104.5	0
82	1656	104.6	0
82	1656	104.7	0
82	1656	104.8	0
82	1656	104.9	0
82	1656	105	0
[...]
86	2076	84	0
86	2076	84.1	0
86	2076	84.2	0
86	2076	84.3	0
86	2076	84.4	0
86	2076	84.5	0
86	2076	84.6	0
86	2076	84.7	0
86	2076	84.8	0
86	2076	84.9	0
86	2076	85	0
86	2076	85.1	0
86	2076	85.2	0
86	2076	85.3	0
86	2076	85.4	0
86	2076	85.5	0
86	2076	85.6	0
86	2076	85.7	0
86	2076	85.8	0
86	2076	85.9	0
86	2076	86	0
86	2076	86.1	0
86	2076	86.2	0
86	2076	86.3	0
86	2076	86.4	0
86	2076	86.5	0
86	2076	86.6	0
86	2076	86.7	0
86	2076	86.8	0
86	2076	86.9	0
86	2076	87	0
86	2076	87.1	0
86	2076	87.2	0
86	2076	87.3	0
86	2076	87.4	0
86	2076	87.5	0
86	2076	87.6	0
86	2076	87.7	0
86	2076	87.8	0
86	2076	87.9	0
86	2076	88	0
86	2076	88.1	0
86	2076	88.2	0
86	2076	88.3	0
86	2076	88.4	0
86	2076	88.5	0
86	2076	88.6	0
86	2076	88.7	0
86	2076	88.8	0
86	2076	88.9	0
86	2076	89	0
86	2076	89.1	0
86	2076	89.2	0
86	2076	89.3	0
86	2076	89.4	0
86	2076	89.5	0
86	2076	89.6	0
86	2076	89.7	0
86	2076	89.8	0
86	2076	89.9	0
86	2076	90	0
86	2076	90.1	0
86	2076	90.2	0
86	2076	90.3	0
86	2076	90.4	0
86	2076	90.5	0
86	2076	90.6	0
86	2076	90.7	0
86	2076	90.8	0
86	2076	90.9	0
86	2076	91	0
86	2076	91.1	0
86	2076	91.2	0
86	2076	91.3	0
86	2076	91.4	0
86	2076	91.5	0
86	2076	91.6	0
86	2076	91.7	0
86	2076	91.8	0
86	2076	91.9	0
86	2076	92	0
86	2076	92.1	0
86	2076	92.2	0
86	2076	92.3	0
86	2076	92.4	0
86	2076	92.5	0
86	2076	92.6	0
86	2076	92.7	0
86	2076	92.8	0
86	2076	92.9	0
86	2076	93	0
86	2076	93.1	0
86	2076	93.2	0
86	2076	93.3	0
86	2076	93.4	0
86	2076	93.5	0
86	2076	93.6	0
86	2076	93.7	0
86	2076	93.8	0
86	2076	93.9	0
86	2076	94	0
86	2076	94.1	0
86	2076	94.2	0
86	2076	94.3	0
86	2076	94.4	0
86	2076	94.5	0
86	2076	94.6	0
86	2076	94.7	0
86	2076	94.8	0
86	2076	94.9	0
86	2076	95	0
86	2076	95.1	0
86	2076	95.2	0
86	2076	95.3	0
86	2076	95.4	0
86	2076	95.5	0
86	2076	95.6	0
86	2076	95.7	0
86	2076	95.8	0
86	2076	95.9	0
86	2076	96	0
86	2076	96.1	0
86	2076	96.2	0
86	2076	96.3	0
86	2076	96.4	0
86	2076	96.5	0
86	2076	96.6	0
86	2076	96.7	0
86	2076	96.8	0
86	2076	96.9	0
86	2076	97	0
86	2076	97.1	0
86	2076	97.2	0
86	2076	97.3	0
86	2076	97.4	0
86	2076	97.5	0
86	2076	97.6	0
86	2076	97.7	0
86	2076	97.8	0
86	2076	97.9	0
86	2076	98	0
86	2076	98.1	0
86	2076	98.2	0
86	2076	98.3	0
86	2076	98.4	0
86	2076	98.5	0
86	2076	98.6	0
86	2076	98.7	0
86	2076	98.8	0
86	2076	98.9	0
86	2076	99	0
86	2076	99.1	0
86	2076	99.2	0
86	2076	99.3	0
86	2076	99.4	0
86	2076	99.5	0
86	2076	99.6	0
86	2076	99.7	0
86	2076	99.8	0
86	2076	99.9	0
86	2076	100	0
86	2076	100.1	0
86	2076	100.2	0
86	2076	100.3	0
86	2076	100.4	0
86	2076	100.5	0
86	2076	100.6	0
86	2076	100.7	0
86	2076	100.8	0
86	2076	100.9	0
86	2076	101	0
86	2076	101.1	0
86	2076	101.2	0
86	2076	101.3	0
86	2076	101.4	0
86	2076	101.5	0
86	2076	101.6	0
86	2076	101.7	0
86	2076	101.8	0
86	2076	101.9	0
86	2076	102	0
86	2076	102.1	0
86	2076	102.2	0
86	2076	102.3	0
86	2076	102.4	0
86	2076	102.5	0
86	2076	102.6	0
86	2076	102.7	0
86	2076	102.8	0
86	2076	102.9	0
86	2076	103	0
86	2076	103.1	0
86	2076	103.2	0
86	2076	103.3	0
86	2076	103.4	0
86	2076	103.5	0
86	2076	103.6	0
86	2076	103.7	0
86	2076	103.8	0
86	2076	103.9	0
86	2076	104	0
86	2076	104.1	0
86	2076	104.2	0
86	2076	104.3	0
86	2076	104.4	0
86	2076	104.5	0
86	2076	104.6	0
86	2076	104.7	0
86	2076	104.8	0
86	2076	104.9	0
86	2076	105	0
86	2076	105.1	0
86	2076	105.2	0
86	2076	105.3	0
86	2076	105.4	0
86	2076	105.5	0
86	2076	105.6	0
86	2076	105.7	0
86	2076	105.8	0
86	2076	105.9	0
86	2076	106	0
86	2076	106.1	0
86	2076	106.2	0
86	2076	106.3	0
86	2076	106.4	0
86	2076	106.5	0
86	2076	106.6	0
86	2076	106.7	0
86	2076	106.8	0
86	2076	106.9	0
86	2076	107	0
86	2076	107.1	0
86	2076	107.2	0
86	2076	107.3	0
86	2076	107.4	0
86	2076	107.5	0
86	2076	107.6	0
86	2076	107.7	0
86	2076	107.8	0
86	2076	107.9	0
86	2076	108	0
86	2076	108.1	0
86	2076	108.2	0
86	2076	108.3	0
86	2076	108.4	0
86	2076	108.5	0
86	2076	108.6	0
86	2076	108.7	0
86	2076	108.8	0
86	2076	108.9	0
86	2076	109	0
86	2076	109.1	0
86	2076	109.2	0
86	2076	109.3	0
86	2076	109.4	0
86	2076	109.5	0
86	2076	109.6	0
86	2076	109.7	0
86	2076	109.8	0
86	2076	109.9	0
86	2076	110	0
86	2076	110.1	0
86	2076	110.2	0
86	2076	110.3	0
86	2076	110.4	0
86	2076	110.5	0
86	2076	110.6	0
86	2076	110.7	0
86	2076	110.8	0
86	2076	110.9	0
86	2076	111	0
86	2076	111.1	0
86	2076	111.2	0
86	2076	111.3	0
86	2076	111.4	0
86	2076	111.5	0
86	2076	111.6	0
86	2076	111.7	0
86	2076	111.8	0
86	2076	111.9	0
86	2076	112	0
86	2076	112.1	0
86	2076	112.2	0
86	2076	112.3	0
86	2076	112.4	0
86	2076	112.5	0
86	2076	112.6	0
86	2076	112.7	0
86	2076	112.8	0
86	2076	112.9	0
86	2076	113	0
86	2076	113.1	0
86	2076	113.2	0
86	2076	113.3	0
86	2076	113.4	0
86	2076	113.5	0
86	2076	113.6	0
86	2076	113.7	0
86	2076	113.8	0
86	2076	113.9	0
86	2076	114	0
86	2076	114.1	0
86	2076	114.2	0
86	2076	114.3	0
86	2076	114.4	0
86	2076	114.5	0
86	2076	114.6	0
86	2076	114.7	0
86	2076	114.8	0
86	2076	114.9	0
86	2076	115	0
86	2076	115.1	0
86	2076	115.2	0
86	2076	115.3	0
86	2076	115.4	0
86	2076	115.5	0
86	2076	115.6	0
86	2076	115.7	0
86	2076	115.8	0
86	2076	115.9	0
86	2076	116	0
86	2076	116.1	0
86	2076	116.2	0
86	2076	116.3	0
86	2076	116.4	0
86	2076	116.5	0
86	2076	116.6	0
86	2076	116.7	0
86	2076	116.8	0
86	2076	116.9	0
86	2076	117	0
86	2076	117.1	0
86	2076	117.2	0
86	2076	117.3	0
86	2076	117.4	0
86	2076	117.5	0
86	2076	117.6	0
86	2076	117.7	0
86	2076	117.8	0
86	2076	117.9	0
86	2076	118	0
86	2076	118.1	0
86	2076	118.2	0
86	2076	118.3	0
86	2076	118.4	0
86	2076	118.5	0
86	2076	118.6	0
86	2076	118.7	0
86	2076	118.8	0
86	2076	118.9	0
86	2076	119	0
86	2076	119.1	0
86	2076	119.2	0
86	2076	119.3	0
86	2076	119.4	0
86	2076	119.5	0
86	2076	119.6	0
86	2076	119.7	0
86	2076	119.8	0
86	2076	119.9	0
86	2076	120	0
86	2076	120.1	0
86	2076	120.2	0
86	2076	120.3	0
86	2076	120.4	0
86	2076	120.5	0
86	2076	120.6	0
86	2076	120.7	0
86	2076	120.8	0
86	2076	120.9	0
86	2076	121	0
86	2076	121.1	0
86	2076	121.2	0
86	2076	121.3	0
86	2076	121.4	0
86	2076	121.5	0
86	2076	121.6	0
86	2076	121.7	0
86	2076	121.8	0
86	2076	121.9	0
86	2076	122	0
86	2076	122.1	0
86	2076	122.2	0
86	2076	122.3	0
86	2076	122.4	0
86	2076	122.5	0
86	2076	122.6	0
86	2076	122.7	0
86	2076	122.8	0
86	2076	122.9	0
86	2076	123	0
86	2076	123.1	0
86	2076	123.2	0
86	2076	123.3	0
86	2076	123.4	0
86	2076	123.5	0
86	2076	123.6	0
86	2076	123.7	0
86	2076	123.8	0
86	2076	123.9	0
86	2076	124	0
86	2076	124.1	0
86	2076	124.2	0
86	2076	124.3	0
86	2076	124.4	0
86	2076	124.5	0
86	2076	124.6	0
86	2076	124.7	0
86	2076	124.8	0
86	2076	124.9	0
86	2076	125	0
86	2076	125.1	0
86	2076	125.2	0
86	2076	125.3	0
86	2076	125.4	0
86	2076	125.5	0
86	2076	125.6	0
86	2076	125.7	0
86	2076	125.8	0
86	2076	125.9	0
86	2076	126	0
86	2076	126.1	0
86	2076	126.2	0
86	2076	126.3	0
86	2076	126.4	0
86	2076	126.5	0
86	2076	126.6	0
86	2076	126.7	0
86	2076	126.8	0
86	2076	126.9	0
86	2076	127	0
86	2076	127.1	0
86	2076	127.2	0
86	2076	127.3	0
86	2076	127.4	0
86	2076	127.5	0
86	2076	127.6	0
86	2076	127.7	0
86	2076	127.8	0
86	2076	127.9	0
86	2076	128	0
86	2076	128.1	0
86	2076	128.2	0
86	2076	128.3	0
86	2076	128.4	0
86	2076	128.5	0
86	2076	128.6	0
86	2076	128.7	0
86	2076	128.8	0
86	2076	128.9	0
86	2076	129	0
86	2076	129.1	0
86	2076	129.2	0
86	2076	129.3	0
86	2076	129.4	0
86	2076	129.5	0
86	2076	129.6	0
86	2076	129.7	0
86	2076	129.8	0
86	2076	129.9	0
86	2076	130	0
86	2076	130.1	0
86	2076	130.2	0
86	2076	130.3	0
86	2076	130.4	0
86	2076	130.5	0
86	2076	130.6	0
86	2076	130.7	0
86	2076	130.8	0
86	2076	130.9	0
86	2076	131	0
86	2076	131.1	0
86	2076	131.2	0
86	2076	131.3	0
86	2076	131.4	0
86	2076	131.5	0
86	2076	131.6	0
86	2076	131.7	0
86	2076	131.8	0
86	2076	131.9	0
86	2076	132	0
86	2076	132.1	0
86	2076	132.2	0
86	2076	132.3	0
86	2076	132.4	0
86	2076	132.5	0
86	2076	132.6	0
86	2076	132.7	0
86	2076	132.8	0
86	2076	132.9	0
86	2076	133	0
86	2076	133.1	0
86	2076	133.2	0
86	2076	133.3	0
86	2076	133.4	0
86	2076	133.5	0
86	2076	133.6	0
86	2076	133.7	0
86	2076	133.8	0
86	2076	133.9	0
86	2076	134	0
86	2076	134.1	0
86	2076	134.2	0
86	2076	134.3	0
86	2076	134.4	0
86	2076	134.5	0
86	2076	134.6	0
86	2076	134.7	0
86	2076	134.8	0
86	2076	134.9	0
86	2076	135	0
86	2076	135.1	0
86	2076	135.2	0
86	2076	135.3	0
86	2076	135.4	0
86	2076	135.5	0
86	2076	135.6	0
86	2076	135.7	0
86	2076	135.8	0
86	2076	135.9	0
86	2076	136	0
86	2076	136.1	0
86	2076	136.2	0
86	2076	136.3	0
86	2076	136.4	0
86	2076	136.5	0
86	2076	136.6	0
86	2076	136.7	0
86	2076	136.8	0
86	2076	136.9	0
86	2076	137	0
86	2076	137.1	0
86	2076	137.2	0
86	2076	137.3	0
86	2076	137.4	0
86	2076	137.5	0
86	2076	137.6	0
86	2076	137.7	0
86	2076	137.8	0
86	2076	137.9	0
86	2076	138	0
86	2076	138.1	0
86	2076	138.2	0
86	2076	138.3	0
86	2076	138.4	0
86	2076	138.5	0
86	2076	138.6	0
86	2076	138.7	0
86	2076	138.8	0
86	2076	138.9	0
86	2076	139	0
86	2076	139.1	0
86	2076	139.2	0
86	2076	139.3	0
86	2076	139.4	0
86	2076	139.5	0
86	2076	139.6	0
86	2076	139.7	0
86	2076	139.8	0
86	2076	139.9	0
86	2076	140	0
86	2076	140.1	0
86	2076	140.2	0
86	2076	140.3	0
86	2076	140.4	0
86	2076	140.5	0
86	2076	140.6	0
86	2076	140.7	0
86	2076	140.8	0
86	2076	140.9	0
86	2076	141	0
86	2076	141.1	0
86	2076	141.2	0
86	2076	141.3	0
86	2076	141.4	0
86	2076	141.5	0
86	2076	141.6	0
86	2076	141.7	0
86	2076	141.8	0
86	2076	141.9	0
86	2076	142	0
86	2076	142.1	0
86	2076	142.2	0
86	2076	142.3	0
86	2076	142.4	0
86	2076	142.5	0
86	2076	142.6	0
86	2076	142.7	0
86	2076	142.8	0
86	2076	142.9	0
86	2076	143	0
86	2076	143.1	0
86	2076	143.2	0
86	2076	143.3	0
86	2076	143.4	0
86	2076	143.5	0
86	2076	143.6	0
86	2076	143.7	0
86	2076	143.8	0
86	2076	143.9	0
86	2076	144	0
86	2076	144.1	0
86	2076	144.2	0
86	2076	144.3	0
86	2076	144.4	0
86	2076	144.5	0
86	2076	144.6	0
86	2076	144.7	0
86	2076	144.8	0
86	2076	144.9	0
86	2076	145	0
86	2076	145.1	0
86	2076	145.2	0
86	2076	145.3	0
86	2076	145.4	0
86	2076	145.5	0
86	2076	145.6	0
86	2076	145.7	0
86	2076	145.8	0
86	2076	145.9	0
86	2076	146	0
86	2076	146.1	0
86	2076	146.2	0
86	2076	146.3	0
86	2076	146.4	0
86	2076	146.5	0
86	2076	146.6	0
86	2076	146.7	0
86	2076	146.8	0
86	2076	146.9	0
86	2076	147	0
86	2076	147.1	0
86	2076	147.2	0
86	2076	147.3	0
86	2076	147.4	0
86	2076	147.5	0
86	2076	147.6	0
86	2076	147.7	0
86	2076	147.8	0
86	2076	147.9	0
86	2076	148	0
86	2076	148.1	0
86	2076	148.2	0
86	2076	148.3	0
86	2076	148.4	0
86	2076	148.5	0
86	2076	148.6	0
86	2076	148.7	0
86	2076	148.8	0
86	2076	148.9	0
86	2076	149	0
86	2076	149.1	0
86	2076	149.2	0
86	2076	149.3	0
86	2076	149.4	0
86	2076	149.5	0
86	2076	149.6	0
86	2076	149.7	0
86	2076	149.8	0
86	2076	149.9	0
86	2076	150	0
86	2076	150.1	0
86	2076	150.2	0
86	2076	150.3	0
86	2076	150.4	0
86	2076	150.5	0
86	2076	150.6	0
86	2076	150.7	0
86	2076	150.8	0
86	2076	150.9	0
86	2076	151	0
86	2076	151.1	0
86	2076	151.2	0
86	2076	151.3	0
86	2076	151.4	0
86	2076	151.5	0
86	2076	151.6	0
86	2076	151.7	0
86	2076	151.8	0
86	2076	151.9	0
86	2076	152	0
86	2076	152.1	0
86	2076	152.2	0
86	2076	152.3	0
86	2076	152.4	0
86	2076	152.5	0
86	2076	152.6	0
86	2076	152.7	0
86	2076	152.8	0
86	2076	152.9	0
86	2076	153	0
86	2076	153.1	0
86	2076	153.2	0
86	2076	153.3	0
86	2076	153.4	0
86	2076	153.5	0
86	2076	153.6	0
86	2076	153.7	0
86	2076	153.8	0
86	2076	153.9	0
86	2076	154	0
86	2076	154.1	0
86	2076	154.2	0
86	2076	154.3	0
86	2076	154.4	0
86	2076	154.5	0
86	2076	154.6	0
86	2076	154.7	0
86	2076	154.8	0
86	2076	154.9	0
86	2076	155	0
86	2076	155.1	0
86	2076	155.2	0
86	2076	155.3	0
86	2076	155.4	0
86	2076	155.5	0
86	2076	155.6	0
86	2076	155.7	0
86	2076	155.8	0
86	2076	155.9	0
86	2076	156	0
86	2076	156.1	0
86	2076	156.2	0
86	2076	156.3	0
86	2076	156.4	0
86	2076	156.5	0
86	2076	156.6	0
86	2076	156.7	0
86	2076	156.8	0
86	2076	156.9	0
86	2076	157	0
86	2076	157.1	0
86	2076	157.2	0
86	2076	157.3	0
86	2076	157.4	0
86	2076	157.5	0
86	2076	157.6	0
86	2076	157.7	0
86	2076	157.8	0
86	2076	157.9	0
86	2076	158	0
86	2076	158.1	0
86	2076	158.2	0
86	2076	158.3	0
86	2076	158.4	0
86	2076	158.5	0
86	2076	158.6	0
86	2076	158.7	0
86	2076	158.8	0
86	2076	158.9	0
86	2076	159	0
86	2076	159.1	0
86	2076	159.2	0
86	2076	159.3	0
86	2076	159.4	0
86	2076	159.5	0
86	2076	159.6	0
86	2076	159.7	0
86	2076	159.8	0
86	2076	159.9	0
86	2076	160	0
86	2076	160.1	0
86	2076	160.2	0
86	2076	160.3	0
86	2076	160.4	0
86	2076	160.5	0
86	2076	160.6	0
86	2076	160.7	0
86	2076	160.8	0
86	2076	160.9	0
86	2076	161	0
86	2076	161.1	0
86	2076	161.2	0
86	2076	161.3	0
86	2076	161.4	0
86	2076	161.5	0
86	2076	161.6	0
86	2076	161.7	0
86	2076	161.8	0
86	2076	161.9	0
86	2076	162	0
86	2076	162.1	0
86	2076	162.2	0
86	2076	162.3	0
86	2076	162.4	0
86	2076	162.5	0
86	2076	162.6	0
86	2076	162.7	0
86	2076	162.8	0
86	2076	162.9	0
86	2076	163	0
86	2076	163.1	0
86	2076	163.2	0
86	2076	163.3	0
86	2076	163.4	0
86	2076	163.5	0
86	2076	163.6	0
86	2076	163.7	0
86	2076	163.8	0
86	2076	163.9	0
86	2076	164	0
86	2076	164.1	0
86	2076	164.2	0
86	2076	164.3	0
86	2076	164.4	0
86	2076	164.5	0
86	2076	164.6	0
86	2076	164.7	0
86	2076	164.8	0
86	2076	164.9	0
86	2076	165	0
86	2076	165.1	0
86	2076	165.2	0
86	2076	165.3	0
86	2076	165.4	0
86	2076	165.5	0
86	2076	165.6	0
86	2076	165.7	0
86	2076	165.8	0
86	2076	165.9	0
86	2076	166	0
86	2076	166.1	0
86	2076	166.2	0
86	2076	166.3	0
86	2076	166.4	0
86	2076	166.5	0
86	2076	166.6	0
86	2076	166.7	0
86	2076	166.8	0
86	2076	166.9	0
86	2076	167	0
86	2076	167.1	0
86	2076	167.2	0
86	2076	167.3	0
86	2076	167.4	0
86	2076	167.5	0
86	2076	167.6	0
86	2076	167.7	0
86	2076	167.8	0
86	2076	167.9	0
86	2076	168	0
86	2076	168.1	0
86	2076	168.2	0
86	2076	168.3	0
86	2076	168.4	0
86	2076	168.5	0
86	2076	168.6	0
86	2076	168.7	0
86	2076	168.8	0
86	2076	168.9	0
86	2076	169	0
86	2076	169.1	0
86	2076	169.2	0
86	2076	169.3	0
86	2076	169.4	0
86	2076	169.5	0
86	2076	169.6	0
86	2076	169.7	0
86	2076	169.8	0
86	2076	169.9	0
86	2076	170	0
86	2076	170.1	0
86	2076	170.2	0
86	2076	170.3	0
86	2076	170.4	0
86	2076	170.5	0
86	2076	170.6	0
86	2076	170.7	0
86	2076	170.8	0
86	2076	170.9	0
86	2076	171	0
86	2076	171.1	0
86	2076	171.2	0
86	2076	171.3	0
86	2076	171.4	0
86	2076	171.5	0
86	2076	171.6	0
86	2076	171.7	0
86	2076	171.8	0
86	2076	171.9	0
86	2076	172	0
86	2076	172.1	0
86	2076	172.2	0
86	2076	172.3	0
86	2076	172.4	0
86	2076	172.5	0
86	2076	172.6	0
86	2076	172.7	0
86	2076	172.8	0
86	2076	172.9	0
86	2076	173	0
86	2076	173.1	0
86	2076	173.2	0
86	2076	173.3	0
86	2076	173.4	0
86	2076	173.5	0
86	2076	173.6	0
86	2076	173.7	0
86	2076	173.8	0
86	2076	173.9	0
86	2076	174	0
86	2076	174.1	0
86	2076	174.2	0
86	2076	174.3	0
86	2076	174.4	0
86	2076	174.5	0
86	2076	174.6	0
86	2076	174.7	0
86	2076	174.8	0
86	2076	174.9	0
86	2076	175	0
86	2076	175.1	0
86	2076	175.2	0
86	2076	175.3	0
86	2076	175.4	0
86	2076	175.5	0
86	2076	175.6	0
86	2076	175.7	0
86	2076	175.8	0
86	2076	175.9	0
86	2076	176	0
86	2076	176.1	0
86	2076	176.2	0
86	2076	176.3	0
86	2076	176.4	0
86	2076	176.5	0
86	2076	176.6	0
86	2076	176.7	0
86	2076	176.8	0
86	2076	176.9	0
86	2076	177	0
86	2076	177.1	0
86	2076	177.2	0
86	2076	177.3	0
86	2076	177.4	0
86	2076	177.5	0
86	2076	177.6	0
86	2076	177.7	0
86	2076	177.8	0
86	2076	177.9	0
86	2076	178	0
86	2076	178.1	0
86	2076	178.2	0
86	2076	178.3	0
86	2076	178.4	0
86	2076	178.5	0
86	2076	178.6	0
86	2076	178.7	0
86	2076	178.8	0
86	2076	178.9	0
86	2076	179	0
86	2076	179.1	0
86	2076	179.2	0
86	2076	179.3	0
86	2076	179.4	0
86	2076	179.5	0
86	2076	179.6	0
86	2076	179.7	0
86	2076	179.8	0
86	2076	179.9	0
86	2076	180	0
86	2076	180.1	0
86	2076	180.2	0
86	2076	180.3	0
86	2076	180.4	0
86	2076	180.5	0
86	2076	180.6	0
86	2076	180.7	0
86	2076	180.8	0
86	2076	180.9	0
86	2076	181	0
86	2076	181.1	0
86	2076	181.2	0
86	2076	181.3	0
86	2076	181.4	0
86	2076	181.5	0
86	2076	181.6	0
86	2076	181.7	0
86	2076	181.8	0
86	2076	181.9	0
86	2076	182	0
86	2076	182.1	0
86	2076	182.2	0
86	2076	182.3	0
86	2076	182.4	0
86	2076	182.5	0
86	2076	182.6	0
86	2076	182.7	0
86	2076	182.8	0
86	2076	182.9	0
86	2076	183	0
86	2076	183.1	0
86	2076	183.2	0
86	2076	183.3	0
86	2076	183.4	0
86	2076	183.5	0
86	2076	183.6	0
86	2076	183.7	0
86	2076	183.8	0
86	2076	183.9	0
86	2076	184	0
86	2076	184.1	0
86	2076	184.2	0
86	2076	184.3	0
86	2076	184.4	0
86	2076	184.5	0
86	2076	184.6	0
86	2076	184.7	0
86	2076	184.8	0
86	2076	184.9	0
86	2076	185	0
86	2076	185.1	0
86	2076	185.2	0
86	2076	185.3	0
86	2076	185.4	0
86	2076	185.5	0
86	2076	185.6	0
86	2076	185.7	0
86	2076	185.8	0
86	2076	185.9	0
86	2076	186	0
86	2076	186.1	0
86	2076	186.2	0
86	2076	186.3	0
86	2076	186.4	0
86	2076	186.5	0
86	2076	186.6	0
86	2076	186.7	0
86	2076	186.8	0
86	2076	186.9	0
86	2076	187	0
86	2076	187.1	0
86	2076	187.2	0
86	2076	187.3	0
86	2076	187.4	0
86	2076	187.5	0
86	2076	187.6	0
86	2076	187.7	0
86	2076	187.8	0
86	2076	187.9	0
86	2076	188	0
86	2076	188.1	0
86	2076	188.2	0
86	2076	188.3	0
86	2076	188.4	0
86	2076	188.5	0
86	2076	188.6	0
86	2076	188.7	0
86	2076	188.8	0
86	2076	188.9	0
86	2076	189	0
86	2076	189.1	0
86	2076	189.2	0
86	2076	189.3	0
86	2076	189.4	0
86	2076	189.5	0
86	2076	189.6	0
86	2076	189.7	0
86	2076	189.8	0
86	2076	189.9	0
86	2076	190	0
86	2076	190.1	0
86	2076	190.2	0
86	2076	190.3	0
86	2076	190.4	0
86	2076	190.5	0
86	2076	190.6	0
86	2076	190.7	0
86	2076	190.8	0
86	2076	190.9	0
86	2076	191	0
86	2076	191.1	0
86	2076	191.2	0
86	2076	191.3	0
86	2076	191.4	0
86	2076	191.5	0
86	2076	191.6	0
86	2076	191.7	0
86	2076	191.8	0
86	2076	191.9	0
86	2076	192	0
86	2076	192.1	0
86	2076	192.2	0
86	2076	192.3	0
86	2076	192.4	0
86	2076	192.5	0
86	2076	192.6	0
86	2076	192.7	0
86	2076	192.8	0
86	2076	192.9	0
86	2076	193	0
86	2076	193.1	0
86	2076	193.2	0
86	2076	193.3	0
86	2076	193.4	0
86	2076	193.5	0
86	2076	193.6	0
86	2076	193.7	0
86	2076	193.8	0
86	2076	193.9	0
86	2076	194	0
86	2076	194.1	0
86	2076	194.2	0
86	2076	194.3	0
86	2076	194.4	0
86	2076	194.5	0
86	2076	194.6	0
86	2076	194.7	0
86	2076	194.8	0
86	2076	194.9	0
86	2076	195	0
86	2076	195.1	0
86	2076	195.2	0
86	2076	195.3	0
86	2076	195.4	0
86	2076	195.5	0
86	2076	195.6	0
86	2076	195.7	0
86	2076	195.8	0
86	2076	195.9	0
86	2076	196	0
86	2076	196.1	0
86	2076	196.2	0
86	2076	196.3	0
86	2076	196.4	0
86	2076	196.5	0
86	2076	196.6	0
86	2076	196.7	0
86	2076	196.8	0
86	2076	196.9	0
86	2076	197	0
86	2076	197.1	0
86	2076	197.2	0
86	2076	197.3	0
86	2076	197.4	0
86	2076	197.5	0
86	2076	197.6	0
86	2076	197.7	0
86	2076	197.8	0
86	2076	197.9	0
86	2076	198	0
86	2076	198.1	0
86	2076	198.2	0
86	2076	198.3	0
86	2076	198.4	0
86	2076	198.5	0
86	2076	198.6	0
86	2076	198.7	0
86	2076	198.8	0
86	2076	198.9	0
86	2076	199	0
86	2076	199.1	0
86	2076	199.2	0
86	2076	199.3	0
86	2076	199.4	0
86	2076	199.5	0
86	2076	199.6	0
86	2076	199.7	0
86	2076	199.8	0
86	2076	199.9	0
86	2076	200	0
0	0	0	0
0	0	0	0
0	0	0	2
1	0	0	3
2	0	0	0
2	0	0	0
2	0	0	2
3	0	0	3
4	0	0	1
4	748	71.000001023889	3
4	764	71.000153023889	1
5	0	0	1
5	747	71.000000519393	3
5	758	71.000152519393	1
6	0	0	15
7	0	0	15
52	759	71.000152519393	158
53	759	71.000152519393	158
54	759	71.000152519393	158
55	759	71.000152519393	158
56	759	71.000152519393	130
57	762	71.000152519393	108
58	762	71.000152519393	1
59	763	71.000152519393	100
60	765	71.000153023889	158
61	765	71.000153023889	158
62	765	71.000153023889	158
63	765	71.000153023889	158
64	765	71.000153023889	130
65	768	71.000153023889	108
66	768	71.000153023889	1
67	769	71.000153023889	100

